
---------- Begin Simulation Statistics ----------
simSeconds                                   0.005529                       # Number of seconds simulated (Second)
simTicks                                   5528696000                       # Number of ticks simulated (Tick)
finalTick                                  5528696000                       # Number of ticks from beginning of simulation (restored from checkpoints and never reset) (Tick)
simFreq                                  1000000000000                       # The number of ticks per simulated second ((Tick/Second))
hostSeconds                                    138.80                       # Real time elapsed on the host (Second)
hostTickRate                                 39833422                       # The number of ticks simulated per host second (ticks/s) ((Tick/Second))
hostMemory                                    1200804                       # Number of bytes of host memory used (Byte)
simInsts                                     19928450                       # Number of instructions simulated (Count)
simOps                                       35336477                       # Number of ops (including micro ops) simulated (Count)
hostInstRate                                   143581                       # Simulator instruction rate (inst/s) ((Count/Second))
hostOpRate                                     254594                       # Simulator op (including micro ops) rate (op/s) ((Count/Second))
system.clk_domain.clock                           500                       # Clock period in ticks (Tick)
system.clk_domain.voltage_domain.voltage            1                       # Voltage in Volts (Volt)
system.cpu.numCycles                         11057393                       # Number of cpu cycles simulated (Cycle)
system.cpu.numWorkItemsStarted                      0                       # Number of work items this cpu started (Count)
system.cpu.numWorkItemsCompleted                    0                       # Number of work items this cpu completed (Count)
system.cpu.instsAdded                        36871767                       # Number of instructions added to the IQ (excludes non-spec) (Count)
system.cpu.nonSpecInstsAdded                       37                       # Number of non-speculative instructions added to the IQ (Count)
system.cpu.instsIssued                       36480012                       # Number of instructions issued (Count)
system.cpu.squashedInstsIssued                   3140                       # Number of squashed instructions issued (Count)
system.cpu.squashedInstsExamined              1535321                       # Number of squashed instructions iterated over during squash; mainly for profiling (Count)
system.cpu.squashedOperandsExamined           1776216                       # Number of squashed operands that are examined and possibly removed from graph (Count)
system.cpu.squashedNonSpecRemoved                  19                       # Number of squashed non-spec instructions that were removed (Count)
system.cpu.numIssuedDist::samples            10963787                       # Number of insts issued each cycle (Count)
system.cpu.numIssuedDist::mean               3.327319                       # Number of insts issued each cycle (Count)
system.cpu.numIssuedDist::stdev              1.976514                       # Number of insts issued each cycle (Count)
system.cpu.numIssuedDist::underflows                0      0.00%      0.00% # Number of insts issued each cycle (Count)
system.cpu.numIssuedDist::0                    945023      8.62%      8.62% # Number of insts issued each cycle (Count)
system.cpu.numIssuedDist::1                   1251161     11.41%     20.03% # Number of insts issued each cycle (Count)
system.cpu.numIssuedDist::2                    938113      8.56%     28.59% # Number of insts issued each cycle (Count)
system.cpu.numIssuedDist::3                   3406555     31.07%     59.66% # Number of insts issued each cycle (Count)
system.cpu.numIssuedDist::4                   1734845     15.82%     75.48% # Number of insts issued each cycle (Count)
system.cpu.numIssuedDist::5                   1141487     10.41%     85.89% # Number of insts issued each cycle (Count)
system.cpu.numIssuedDist::6                    786062      7.17%     93.06% # Number of insts issued each cycle (Count)
system.cpu.numIssuedDist::7                    314555      2.87%     95.93% # Number of insts issued each cycle (Count)
system.cpu.numIssuedDist::8                    445986      4.07%    100.00% # Number of insts issued each cycle (Count)
system.cpu.numIssuedDist::overflows                 0      0.00%    100.00% # Number of insts issued each cycle (Count)
system.cpu.numIssuedDist::min_value                 0                       # Number of insts issued each cycle (Count)
system.cpu.numIssuedDist::max_value                 8                       # Number of insts issued each cycle (Count)
system.cpu.numIssuedDist::total              10963787                       # Number of insts issued each cycle (Count)
system.cpu.statFuBusy::No_OpClass                   0      0.00%      0.00% # attempts to use FU when none available (Count)
system.cpu.statFuBusy::IntAlu                  569104     95.00%     95.00% # attempts to use FU when none available (Count)
system.cpu.statFuBusy::IntMult                      0      0.00%     95.00% # attempts to use FU when none available (Count)
system.cpu.statFuBusy::IntDiv                       0      0.00%     95.00% # attempts to use FU when none available (Count)
system.cpu.statFuBusy::FloatAdd                     0      0.00%     95.00% # attempts to use FU when none available (Count)
system.cpu.statFuBusy::FloatCmp                     0      0.00%     95.00% # attempts to use FU when none available (Count)
system.cpu.statFuBusy::FloatCvt                     0      0.00%     95.00% # attempts to use FU when none available (Count)
system.cpu.statFuBusy::FloatMult                    0      0.00%     95.00% # attempts to use FU when none available (Count)
system.cpu.statFuBusy::FloatMultAcc                 0      0.00%     95.00% # attempts to use FU when none available (Count)
system.cpu.statFuBusy::FloatDiv                     0      0.00%     95.00% # attempts to use FU when none available (Count)
system.cpu.statFuBusy::FloatMisc                    0      0.00%     95.00% # attempts to use FU when none available (Count)
system.cpu.statFuBusy::FloatSqrt                    0      0.00%     95.00% # attempts to use FU when none available (Count)
system.cpu.statFuBusy::SimdAdd                      0      0.00%     95.00% # attempts to use FU when none available (Count)
system.cpu.statFuBusy::SimdAddAcc                   0      0.00%     95.00% # attempts to use FU when none available (Count)
system.cpu.statFuBusy::SimdAlu                   1015      0.17%     95.17% # attempts to use FU when none available (Count)
system.cpu.statFuBusy::SimdCmp                      0      0.00%     95.17% # attempts to use FU when none available (Count)
system.cpu.statFuBusy::SimdCvt                     20      0.00%     95.17% # attempts to use FU when none available (Count)
system.cpu.statFuBusy::SimdMisc                    10      0.00%     95.18% # attempts to use FU when none available (Count)
system.cpu.statFuBusy::SimdMult                     0      0.00%     95.18% # attempts to use FU when none available (Count)
system.cpu.statFuBusy::SimdMultAcc                  0      0.00%     95.18% # attempts to use FU when none available (Count)
system.cpu.statFuBusy::SimdShift                    0      0.00%     95.18% # attempts to use FU when none available (Count)
system.cpu.statFuBusy::SimdShiftAcc                 0      0.00%     95.18% # attempts to use FU when none available (Count)
system.cpu.statFuBusy::SimdDiv                      0      0.00%     95.18% # attempts to use FU when none available (Count)
system.cpu.statFuBusy::SimdSqrt                     0      0.00%     95.18% # attempts to use FU when none available (Count)
system.cpu.statFuBusy::SimdFloatAdd                 0      0.00%     95.18% # attempts to use FU when none available (Count)
system.cpu.statFuBusy::SimdFloatAlu                 0      0.00%     95.18% # attempts to use FU when none available (Count)
system.cpu.statFuBusy::SimdFloatCmp                 0      0.00%     95.18% # attempts to use FU when none available (Count)
system.cpu.statFuBusy::SimdFloatCvt                 0      0.00%     95.18% # attempts to use FU when none available (Count)
system.cpu.statFuBusy::SimdFloatDiv                 0      0.00%     95.18% # attempts to use FU when none available (Count)
system.cpu.statFuBusy::SimdFloatMisc                0      0.00%     95.18% # attempts to use FU when none available (Count)
system.cpu.statFuBusy::SimdFloatMult                0      0.00%     95.18% # attempts to use FU when none available (Count)
system.cpu.statFuBusy::SimdFloatMultAcc             0      0.00%     95.18% # attempts to use FU when none available (Count)
system.cpu.statFuBusy::SimdFloatSqrt                0      0.00%     95.18% # attempts to use FU when none available (Count)
system.cpu.statFuBusy::SimdReduceAdd                0      0.00%     95.18% # attempts to use FU when none available (Count)
system.cpu.statFuBusy::SimdReduceAlu                0      0.00%     95.18% # attempts to use FU when none available (Count)
system.cpu.statFuBusy::SimdReduceCmp                0      0.00%     95.18% # attempts to use FU when none available (Count)
system.cpu.statFuBusy::SimdFloatReduceAdd            0      0.00%     95.18% # attempts to use FU when none available (Count)
system.cpu.statFuBusy::SimdFloatReduceCmp            0      0.00%     95.18% # attempts to use FU when none available (Count)
system.cpu.statFuBusy::SimdAes                      0      0.00%     95.18% # attempts to use FU when none available (Count)
system.cpu.statFuBusy::SimdAesMix                   0      0.00%     95.18% # attempts to use FU when none available (Count)
system.cpu.statFuBusy::SimdSha1Hash                 0      0.00%     95.18% # attempts to use FU when none available (Count)
system.cpu.statFuBusy::SimdSha1Hash2                0      0.00%     95.18% # attempts to use FU when none available (Count)
system.cpu.statFuBusy::SimdSha256Hash               0      0.00%     95.18% # attempts to use FU when none available (Count)
system.cpu.statFuBusy::SimdSha256Hash2              0      0.00%     95.18% # attempts to use FU when none available (Count)
system.cpu.statFuBusy::SimdShaSigma2                0      0.00%     95.18% # attempts to use FU when none available (Count)
system.cpu.statFuBusy::SimdShaSigma3                0      0.00%     95.18% # attempts to use FU when none available (Count)
system.cpu.statFuBusy::SimdPredAlu                  0      0.00%     95.18% # attempts to use FU when none available (Count)
system.cpu.statFuBusy::MemRead                  18477      3.08%     98.26% # attempts to use FU when none available (Count)
system.cpu.statFuBusy::MemWrite                  4406      0.74%     99.00% # attempts to use FU when none available (Count)
system.cpu.statFuBusy::FloatMemRead              1108      0.18%     99.18% # attempts to use FU when none available (Count)
system.cpu.statFuBusy::FloatMemWrite             4909      0.82%    100.00% # attempts to use FU when none available (Count)
system.cpu.statFuBusy::IprAccess                    0      0.00%    100.00% # attempts to use FU when none available (Count)
system.cpu.statFuBusy::InstPrefetch                 0      0.00%    100.00% # attempts to use FU when none available (Count)
system.cpu.statIssuedInstType_0::No_OpClass       630372      1.73%      1.73% # Number of instructions issued per FU type, per thread (Count)
system.cpu.statIssuedInstType_0::IntAlu      20845435     57.14%     58.87% # Number of instructions issued per FU type, per thread (Count)
system.cpu.statIssuedInstType_0::IntMult       521080      1.43%     60.30% # Number of instructions issued per FU type, per thread (Count)
system.cpu.statIssuedInstType_0::IntDiv         55972      0.15%     60.45% # Number of instructions issued per FU type, per thread (Count)
system.cpu.statIssuedInstType_0::FloatAdd      1527204      4.19%     64.64% # Number of instructions issued per FU type, per thread (Count)
system.cpu.statIssuedInstType_0::FloatCmp            0      0.00%     64.64% # Number of instructions issued per FU type, per thread (Count)
system.cpu.statIssuedInstType_0::FloatCvt           32      0.00%     64.64% # Number of instructions issued per FU type, per thread (Count)
system.cpu.statIssuedInstType_0::FloatMult            0      0.00%     64.64% # Number of instructions issued per FU type, per thread (Count)
system.cpu.statIssuedInstType_0::FloatMultAcc            0      0.00%     64.64% # Number of instructions issued per FU type, per thread (Count)
system.cpu.statIssuedInstType_0::FloatDiv            0      0.00%     64.64% # Number of instructions issued per FU type, per thread (Count)
system.cpu.statIssuedInstType_0::FloatMisc            0      0.00%     64.64% # Number of instructions issued per FU type, per thread (Count)
system.cpu.statIssuedInstType_0::FloatSqrt            0      0.00%     64.64% # Number of instructions issued per FU type, per thread (Count)
system.cpu.statIssuedInstType_0::SimdAdd          442      0.00%     64.64% # Number of instructions issued per FU type, per thread (Count)
system.cpu.statIssuedInstType_0::SimdAddAcc            0      0.00%     64.64% # Number of instructions issued per FU type, per thread (Count)
system.cpu.statIssuedInstType_0::SimdAlu        18996      0.05%     64.69% # Number of instructions issued per FU type, per thread (Count)
system.cpu.statIssuedInstType_0::SimdCmp            8      0.00%     64.69% # Number of instructions issued per FU type, per thread (Count)
system.cpu.statIssuedInstType_0::SimdCvt        11053      0.03%     64.72% # Number of instructions issued per FU type, per thread (Count)
system.cpu.statIssuedInstType_0::SimdMisc        24968      0.07%     64.79% # Number of instructions issued per FU type, per thread (Count)
system.cpu.statIssuedInstType_0::SimdMult            0      0.00%     64.79% # Number of instructions issued per FU type, per thread (Count)
system.cpu.statIssuedInstType_0::SimdMultAcc            0      0.00%     64.79% # Number of instructions issued per FU type, per thread (Count)
system.cpu.statIssuedInstType_0::SimdShift          302      0.00%     64.79% # Number of instructions issued per FU type, per thread (Count)
system.cpu.statIssuedInstType_0::SimdShiftAcc            0      0.00%     64.79% # Number of instructions issued per FU type, per thread (Count)
system.cpu.statIssuedInstType_0::SimdDiv            0      0.00%     64.79% # Number of instructions issued per FU type, per thread (Count)
system.cpu.statIssuedInstType_0::SimdSqrt            0      0.00%     64.79% # Number of instructions issued per FU type, per thread (Count)
system.cpu.statIssuedInstType_0::SimdFloatAdd            0      0.00%     64.79% # Number of instructions issued per FU type, per thread (Count)
system.cpu.statIssuedInstType_0::SimdFloatAlu            0      0.00%     64.79% # Number of instructions issued per FU type, per thread (Count)
system.cpu.statIssuedInstType_0::SimdFloatCmp            0      0.00%     64.79% # Number of instructions issued per FU type, per thread (Count)
system.cpu.statIssuedInstType_0::SimdFloatCvt       509601      1.40%     66.19% # Number of instructions issued per FU type, per thread (Count)
system.cpu.statIssuedInstType_0::SimdFloatDiv            0      0.00%     66.19% # Number of instructions issued per FU type, per thread (Count)
system.cpu.statIssuedInstType_0::SimdFloatMisc            0      0.00%     66.19% # Number of instructions issued per FU type, per thread (Count)
system.cpu.statIssuedInstType_0::SimdFloatMult            0      0.00%     66.19% # Number of instructions issued per FU type, per thread (Count)
system.cpu.statIssuedInstType_0::SimdFloatMultAcc            0      0.00%     66.19% # Number of instructions issued per FU type, per thread (Count)
system.cpu.statIssuedInstType_0::SimdFloatSqrt            0      0.00%     66.19% # Number of instructions issued per FU type, per thread (Count)
system.cpu.statIssuedInstType_0::SimdReduceAdd            0      0.00%     66.19% # Number of instructions issued per FU type, per thread (Count)
system.cpu.statIssuedInstType_0::SimdReduceAlu            0      0.00%     66.19% # Number of instructions issued per FU type, per thread (Count)
system.cpu.statIssuedInstType_0::SimdReduceCmp            0      0.00%     66.19% # Number of instructions issued per FU type, per thread (Count)
system.cpu.statIssuedInstType_0::SimdFloatReduceAdd            0      0.00%     66.19% # Number of instructions issued per FU type, per thread (Count)
system.cpu.statIssuedInstType_0::SimdFloatReduceCmp            0      0.00%     66.19% # Number of instructions issued per FU type, per thread (Count)
system.cpu.statIssuedInstType_0::SimdAes            0      0.00%     66.19% # Number of instructions issued per FU type, per thread (Count)
system.cpu.statIssuedInstType_0::SimdAesMix            0      0.00%     66.19% # Number of instructions issued per FU type, per thread (Count)
system.cpu.statIssuedInstType_0::SimdSha1Hash            0      0.00%     66.19% # Number of instructions issued per FU type, per thread (Count)
system.cpu.statIssuedInstType_0::SimdSha1Hash2            0      0.00%     66.19% # Number of instructions issued per FU type, per thread (Count)
system.cpu.statIssuedInstType_0::SimdSha256Hash            0      0.00%     66.19% # Number of instructions issued per FU type, per thread (Count)
system.cpu.statIssuedInstType_0::SimdSha256Hash2            0      0.00%     66.19% # Number of instructions issued per FU type, per thread (Count)
system.cpu.statIssuedInstType_0::SimdShaSigma2            0      0.00%     66.19% # Number of instructions issued per FU type, per thread (Count)
system.cpu.statIssuedInstType_0::SimdShaSigma3            0      0.00%     66.19% # Number of instructions issued per FU type, per thread (Count)
system.cpu.statIssuedInstType_0::SimdPredAlu            0      0.00%     66.19% # Number of instructions issued per FU type, per thread (Count)
system.cpu.statIssuedInstType_0::MemRead      6119298     16.77%     82.96% # Number of instructions issued per FU type, per thread (Count)
system.cpu.statIssuedInstType_0::MemWrite      3120758      8.55%     91.52% # Number of instructions issued per FU type, per thread (Count)
system.cpu.statIssuedInstType_0::FloatMemRead      2062101      5.65%     97.17% # Number of instructions issued per FU type, per thread (Count)
system.cpu.statIssuedInstType_0::FloatMemWrite      1032390      2.83%    100.00% # Number of instructions issued per FU type, per thread (Count)
system.cpu.statIssuedInstType_0::IprAccess            0      0.00%    100.00% # Number of instructions issued per FU type, per thread (Count)
system.cpu.statIssuedInstType_0::InstPrefetch            0      0.00%    100.00% # Number of instructions issued per FU type, per thread (Count)
system.cpu.statIssuedInstType_0::total       36480012                       # Number of instructions issued per FU type, per thread (Count)
system.cpu.issueRate                         3.299151                       # Inst issue rate ((Count/Cycle))
system.cpu.fuBusy                              599049                       # FU busy when requested (Count)
system.cpu.fuBusyRate                        0.016421                       # FU busy rate (busy events/executed inst) ((Count/Count))
system.cpu.intInstQueueReads                 74128065                       # Number of integer instruction queue reads (Count)
system.cpu.intInstQueueWrites                33114029                       # Number of integer instruction queue writes (Count)
system.cpu.intInstQueueWakeupAccesses        31123186                       # Number of integer instruction queue wakeup accesses (Count)
system.cpu.fpInstQueueReads                  10397935                       # Number of floating instruction queue reads (Count)
system.cpu.fpInstQueueWrites                  5293598                       # Number of floating instruction queue writes (Count)
system.cpu.fpInstQueueWakeupAccesses          5170991                       # Number of floating instruction queue wakeup accesses (Count)
system.cpu.vecInstQueueReads                        0                       # Number of vector instruction queue reads (Count)
system.cpu.vecInstQueueWrites                       0                       # Number of vector instruction queue writes (Count)
system.cpu.vecInstQueueWakeupAccesses               0                       # Number of vector instruction queue wakeup accesses (Count)
system.cpu.intAluAccesses                    31246214                       # Number of integer alu accesses (Count)
system.cpu.fpAluAccesses                      5202475                       # Number of floating point alu accesses (Count)
system.cpu.vecAluAccesses                           0                       # Number of vector alu accesses (Count)
system.cpu.numInsts                          36361829                       # Number of executed instructions (Count)
system.cpu.numLoadInsts                       8156360                       # Number of load instructions executed (Count)
system.cpu.numSquashedInsts                    118183                       # Number of squashed instructions skipped in execute (Count)
system.cpu.numSwp                                   0                       # Number of swp insts executed (Count)
system.cpu.numNop                                   0                       # Number of nop insts executed (Count)
system.cpu.numRefs                           12299780                       # Number of memory reference insts executed (Count)
system.cpu.numBranches                        3366693                       # Number of branches executed (Count)
system.cpu.numStoreInsts                      4143420                       # Number of stores executed (Count)
system.cpu.numRate                           3.288463                       # Inst execution rate ((Count/Cycle))
system.cpu.timesIdled                             889                       # Number of times that the entire CPU went into an idle state and unscheduled itself (Count)
system.cpu.idleCycles                           93606                       # Total number of cycles that the CPU has spent unscheduled due to idling (Cycle)
system.cpu.committedInsts                    19928450                       # Number of Instructions Simulated (Count)
system.cpu.committedOps                      35336477                       # Number of Ops (including micro ops) Simulated (Count)
system.cpu.cpi                               0.554855                       # CPI: Cycles Per Instruction ((Cycle/Count))
system.cpu.totalCpi                          0.554855                       # CPI: Total CPI of All Threads ((Cycle/Count))
system.cpu.ipc                               1.802274                       # IPC: Instructions Per Cycle ((Count/Cycle))
system.cpu.totalIpc                          1.802274                       # IPC: Total IPC of All Threads ((Count/Cycle))
system.cpu.intRegfileReads                   56603433                       # Number of integer regfile reads (Count)
system.cpu.intRegfileWrites                  24672772                       # Number of integer regfile writes (Count)
system.cpu.fpRegfileReads                     2182310                       # Number of floating regfile reads (Count)
system.cpu.fpRegfileWrites                    3621539                       # Number of floating regfile writes (Count)
system.cpu.ccRegfileReads                    10568446                       # number of cc regfile reads (Count)
system.cpu.ccRegfileWrites                    6027536                       # number of cc regfile writes (Count)
system.cpu.miscRegfileReads                  18537803                       # number of misc regfile reads (Count)
system.cpu.miscRegfileWrites                       18                       # number of misc regfile writes (Count)
system.cpu.MemDepUnit__0.insertedLoads        8218695                       # Number of loads inserted to the mem dependence unit. (Count)
system.cpu.MemDepUnit__0.insertedStores       4190457                       # Number of stores inserted to the mem dependence unit. (Count)
system.cpu.MemDepUnit__0.conflictingLoads      2588001                       # Number of conflicting loads. (Count)
system.cpu.MemDepUnit__0.conflictingStores       632085                       # Number of conflicting stores. (Count)
system.cpu.MemDepUnit__1.insertedLoads              0                       # Number of loads inserted to the mem dependence unit. (Count)
system.cpu.MemDepUnit__1.insertedStores             0                       # Number of stores inserted to the mem dependence unit. (Count)
system.cpu.MemDepUnit__1.conflictingLoads            0                       # Number of conflicting loads. (Count)
system.cpu.MemDepUnit__1.conflictingStores            0                       # Number of conflicting stores. (Count)
system.cpu.MemDepUnit__2.insertedLoads              0                       # Number of loads inserted to the mem dependence unit. (Count)
system.cpu.MemDepUnit__2.insertedStores             0                       # Number of stores inserted to the mem dependence unit. (Count)
system.cpu.MemDepUnit__2.conflictingLoads            0                       # Number of conflicting loads. (Count)
system.cpu.MemDepUnit__2.conflictingStores            0                       # Number of conflicting stores. (Count)
system.cpu.MemDepUnit__3.insertedLoads              0                       # Number of loads inserted to the mem dependence unit. (Count)
system.cpu.MemDepUnit__3.insertedStores             0                       # Number of stores inserted to the mem dependence unit. (Count)
system.cpu.MemDepUnit__3.conflictingLoads            0                       # Number of conflicting loads. (Count)
system.cpu.MemDepUnit__3.conflictingStores            0                       # Number of conflicting stores. (Count)
system.cpu.branchPred.lookups                 3560679                       # Number of BP lookups (Count)
system.cpu.branchPred.condPredicted           1747712                       # Number of conditional branches predicted (Count)
system.cpu.branchPred.condIncorrect             47664                       # Number of conditional branches incorrect (Count)
system.cpu.branchPred.BTBLookups              1460967                       # Number of BTB lookups (Count)
system.cpu.branchPred.BTBHits                 1448423                       # Number of BTB hits (Count)
system.cpu.branchPred.BTBHitRatio            0.991414                       # BTB Hit Ratio (Ratio)
system.cpu.branchPred.RASUsed                  591701                       # Number of times the RAS was used to get a target. (Count)
system.cpu.branchPred.RASIncorrect                989                       # Number of incorrect RAS predictions. (Count)
system.cpu.branchPred.indirectLookups          559975                       # Number of indirect predictor lookups. (Count)
system.cpu.branchPred.indirectHits             533635                       # Number of indirect target hits. (Count)
system.cpu.branchPred.indirectMisses            26340                       # Number of indirect misses. (Count)
system.cpu.branchPred.indirectMispredicted          299                       # Number of mispredicted indirect branches. (Count)
system.cpu.commit.commitSquashedInsts         1503113                       # The number of squashed insts skipped by commit (Count)
system.cpu.commit.commitNonSpecStalls              18                       # The number of times commit has been forced to stall to communicate backwards (Count)
system.cpu.commit.branchMispredicts             47230                       # The number of times a branch was mispredicted (Count)
system.cpu.commit.numCommittedDist::samples     10748743                       # Number of insts commited each cycle (Count)
system.cpu.commit.numCommittedDist::mean     3.287499                       # Number of insts commited each cycle (Count)
system.cpu.commit.numCommittedDist::stdev     3.104336                       # Number of insts commited each cycle (Count)
system.cpu.commit.numCommittedDist::underflows            0      0.00%      0.00% # Number of insts commited each cycle (Count)
system.cpu.commit.numCommittedDist::0         2961398     27.55%     27.55% # Number of insts commited each cycle (Count)
system.cpu.commit.numCommittedDist::1          835038      7.77%     35.32% # Number of insts commited each cycle (Count)
system.cpu.commit.numCommittedDist::2         1914681     17.81%     53.13% # Number of insts commited each cycle (Count)
system.cpu.commit.numCommittedDist::3         1259078     11.71%     64.85% # Number of insts commited each cycle (Count)
system.cpu.commit.numCommittedDist::4          615214      5.72%     70.57% # Number of insts commited each cycle (Count)
system.cpu.commit.numCommittedDist::5           98810      0.92%     71.49% # Number of insts commited each cycle (Count)
system.cpu.commit.numCommittedDist::6           64161      0.60%     72.09% # Number of insts commited each cycle (Count)
system.cpu.commit.numCommittedDist::7          447933      4.17%     76.25% # Number of insts commited each cycle (Count)
system.cpu.commit.numCommittedDist::8         2552430     23.75%    100.00% # Number of insts commited each cycle (Count)
system.cpu.commit.numCommittedDist::overflows            0      0.00%    100.00% # Number of insts commited each cycle (Count)
system.cpu.commit.numCommittedDist::min_value            0                       # Number of insts commited each cycle (Count)
system.cpu.commit.numCommittedDist::max_value            8                       # Number of insts commited each cycle (Count)
system.cpu.commit.numCommittedDist::total     10748743                       # Number of insts commited each cycle (Count)
system.cpu.commit.instsCommitted             19928450                       # Number of instructions committed (Count)
system.cpu.commit.opsCommitted               35336477                       # Number of ops (including micro ops) committed (Count)
system.cpu.commit.memRefs                    12069539                       # Number of memory references committed (Count)
system.cpu.commit.loads                       7978510                       # Number of loads committed (Count)
system.cpu.commit.amos                              0                       # Number of atomic instructions committed (Count)
system.cpu.commit.membars                           0                       # Number of memory barriers committed (Count)
system.cpu.commit.branches                    3283692                       # Number of branches committed (Count)
system.cpu.commit.vectorInstructions                0                       # Number of committed Vector instructions. (Count)
system.cpu.commit.floating                    5154398                       # Number of committed floating point instructions. (Count)
system.cpu.commit.integer                    32657360                       # Number of committed integer instructions. (Count)
system.cpu.commit.functionCalls                563369                       # Number of function calls committed. (Count)
system.cpu.commit.committedInstType_0::No_OpClass       589130      1.67%      1.67% # Class of committed instruction (Count)
system.cpu.commit.committedInstType_0::IntAlu     20030633     56.69%     58.35% # Class of committed instruction (Count)
system.cpu.commit.committedInstType_0::IntMult       516165      1.46%     59.81% # Class of committed instruction (Count)
system.cpu.commit.committedInstType_0::IntDiv        53994      0.15%     59.97% # Class of committed instruction (Count)
system.cpu.commit.committedInstType_0::FloatAdd      1513865      4.28%     64.25% # Class of committed instruction (Count)
system.cpu.commit.committedInstType_0::FloatCmp            0      0.00%     64.25% # Class of committed instruction (Count)
system.cpu.commit.committedInstType_0::FloatCvt           32      0.00%     64.25% # Class of committed instruction (Count)
system.cpu.commit.committedInstType_0::FloatMult            0      0.00%     64.25% # Class of committed instruction (Count)
system.cpu.commit.committedInstType_0::FloatMultAcc            0      0.00%     64.25% # Class of committed instruction (Count)
system.cpu.commit.committedInstType_0::FloatDiv            0      0.00%     64.25% # Class of committed instruction (Count)
system.cpu.commit.committedInstType_0::FloatMisc            0      0.00%     64.25% # Class of committed instruction (Count)
system.cpu.commit.committedInstType_0::FloatSqrt            0      0.00%     64.25% # Class of committed instruction (Count)
system.cpu.commit.committedInstType_0::SimdAdd          326      0.00%     64.25% # Class of committed instruction (Count)
system.cpu.commit.committedInstType_0::SimdAddAcc            0      0.00%     64.25% # Class of committed instruction (Count)
system.cpu.commit.committedInstType_0::SimdAlu        18662      0.05%     64.30% # Class of committed instruction (Count)
system.cpu.commit.committedInstType_0::SimdCmp            6      0.00%     64.30% # Class of committed instruction (Count)
system.cpu.commit.committedInstType_0::SimdCvt        10720      0.03%     64.33% # Class of committed instruction (Count)
system.cpu.commit.committedInstType_0::SimdMisc        24821      0.07%     64.40% # Class of committed instruction (Count)
system.cpu.commit.committedInstType_0::SimdMult            0      0.00%     64.40% # Class of committed instruction (Count)
system.cpu.commit.committedInstType_0::SimdMultAcc            0      0.00%     64.40% # Class of committed instruction (Count)
system.cpu.commit.committedInstType_0::SimdShift           90      0.00%     64.40% # Class of committed instruction (Count)
system.cpu.commit.committedInstType_0::SimdShiftAcc            0      0.00%     64.40% # Class of committed instruction (Count)
system.cpu.commit.committedInstType_0::SimdDiv            0      0.00%     64.40% # Class of committed instruction (Count)
system.cpu.commit.committedInstType_0::SimdSqrt            0      0.00%     64.40% # Class of committed instruction (Count)
system.cpu.commit.committedInstType_0::SimdFloatAdd            0      0.00%     64.40% # Class of committed instruction (Count)
system.cpu.commit.committedInstType_0::SimdFloatAlu            0      0.00%     64.40% # Class of committed instruction (Count)
system.cpu.commit.committedInstType_0::SimdFloatCmp            0      0.00%     64.40% # Class of committed instruction (Count)
system.cpu.commit.committedInstType_0::SimdFloatCvt       508494      1.44%     65.84% # Class of committed instruction (Count)
system.cpu.commit.committedInstType_0::SimdFloatDiv            0      0.00%     65.84% # Class of committed instruction (Count)
system.cpu.commit.committedInstType_0::SimdFloatMisc            0      0.00%     65.84% # Class of committed instruction (Count)
system.cpu.commit.committedInstType_0::SimdFloatMult            0      0.00%     65.84% # Class of committed instruction (Count)
system.cpu.commit.committedInstType_0::SimdFloatMultAcc            0      0.00%     65.84% # Class of committed instruction (Count)
system.cpu.commit.committedInstType_0::SimdFloatSqrt            0      0.00%     65.84% # Class of committed instruction (Count)
system.cpu.commit.committedInstType_0::SimdReduceAdd            0      0.00%     65.84% # Class of committed instruction (Count)
system.cpu.commit.committedInstType_0::SimdReduceAlu            0      0.00%     65.84% # Class of committed instruction (Count)
system.cpu.commit.committedInstType_0::SimdReduceCmp            0      0.00%     65.84% # Class of committed instruction (Count)
system.cpu.commit.committedInstType_0::SimdFloatReduceAdd            0      0.00%     65.84% # Class of committed instruction (Count)
system.cpu.commit.committedInstType_0::SimdFloatReduceCmp            0      0.00%     65.84% # Class of committed instruction (Count)
system.cpu.commit.committedInstType_0::SimdAes            0      0.00%     65.84% # Class of committed instruction (Count)
system.cpu.commit.committedInstType_0::SimdAesMix            0      0.00%     65.84% # Class of committed instruction (Count)
system.cpu.commit.committedInstType_0::SimdSha1Hash            0      0.00%     65.84% # Class of committed instruction (Count)
system.cpu.commit.committedInstType_0::SimdSha1Hash2            0      0.00%     65.84% # Class of committed instruction (Count)
system.cpu.commit.committedInstType_0::SimdSha256Hash            0      0.00%     65.84% # Class of committed instruction (Count)
system.cpu.commit.committedInstType_0::SimdSha256Hash2            0      0.00%     65.84% # Class of committed instruction (Count)
system.cpu.commit.committedInstType_0::SimdShaSigma2            0      0.00%     65.84% # Class of committed instruction (Count)
system.cpu.commit.committedInstType_0::SimdShaSigma3            0      0.00%     65.84% # Class of committed instruction (Count)
system.cpu.commit.committedInstType_0::SimdPredAlu            0      0.00%     65.84% # Class of committed instruction (Count)
system.cpu.commit.committedInstType_0::MemRead      5941599     16.81%     82.66% # Class of committed instruction (Count)
system.cpu.commit.committedInstType_0::MemWrite      3058838      8.66%     91.31% # Class of committed instruction (Count)
system.cpu.commit.committedInstType_0::FloatMemRead      2036911      5.76%     97.08% # Class of committed instruction (Count)
system.cpu.commit.committedInstType_0::FloatMemWrite      1032191      2.92%    100.00% # Class of committed instruction (Count)
system.cpu.commit.committedInstType_0::IprAccess            0      0.00%    100.00% # Class of committed instruction (Count)
system.cpu.commit.committedInstType_0::InstPrefetch            0      0.00%    100.00% # Class of committed instruction (Count)
system.cpu.commit.committedInstType_0::total     35336477                       # Class of committed instruction (Count)
system.cpu.commit.commitEligibleSamples       2552430                       # number cycles where commit BW limit reached (Cycle)
system.cpu.dcache.demandHits::cpu.data        8026344                       # number of demand (read+write) hits (Count)
system.cpu.dcache.demandHits::total           8026344                       # number of demand (read+write) hits (Count)
system.cpu.dcache.overallHits::cpu.data       8026344                       # number of overall hits (Count)
system.cpu.dcache.overallHits::total          8026344                       # number of overall hits (Count)
system.cpu.dcache.demandMisses::cpu.data        27100                       # number of demand (read+write) misses (Count)
system.cpu.dcache.demandMisses::total           27100                       # number of demand (read+write) misses (Count)
system.cpu.dcache.overallMisses::cpu.data        27100                       # number of overall misses (Count)
system.cpu.dcache.overallMisses::total          27100                       # number of overall misses (Count)
system.cpu.dcache.demandMissLatency::cpu.data   1115424000                       # number of demand (read+write) miss ticks (Tick)
system.cpu.dcache.demandMissLatency::total   1115424000                       # number of demand (read+write) miss ticks (Tick)
system.cpu.dcache.overallMissLatency::cpu.data   1115424000                       # number of overall miss ticks (Tick)
system.cpu.dcache.overallMissLatency::total   1115424000                       # number of overall miss ticks (Tick)
system.cpu.dcache.demandAccesses::cpu.data      8053444                       # number of demand (read+write) accesses (Count)
system.cpu.dcache.demandAccesses::total       8053444                       # number of demand (read+write) accesses (Count)
system.cpu.dcache.overallAccesses::cpu.data      8053444                       # number of overall (read+write) accesses (Count)
system.cpu.dcache.overallAccesses::total      8053444                       # number of overall (read+write) accesses (Count)
system.cpu.dcache.demandMissRate::cpu.data     0.003365                       # miss rate for demand accesses (Ratio)
system.cpu.dcache.demandMissRate::total      0.003365                       # miss rate for demand accesses (Ratio)
system.cpu.dcache.overallMissRate::cpu.data     0.003365                       # miss rate for overall accesses (Ratio)
system.cpu.dcache.overallMissRate::total     0.003365                       # miss rate for overall accesses (Ratio)
system.cpu.dcache.demandAvgMissLatency::cpu.data 41159.557196                       # average overall miss latency ((Cycle/Count))
system.cpu.dcache.demandAvgMissLatency::total 41159.557196                       # average overall miss latency ((Cycle/Count))
system.cpu.dcache.overallAvgMissLatency::cpu.data 41159.557196                       # average overall miss latency ((Cycle/Count))
system.cpu.dcache.overallAvgMissLatency::total 41159.557196                       # average overall miss latency ((Cycle/Count))
system.cpu.dcache.blockedCycles::no_mshrs        15995                       # number of cycles access was blocked (Cycle)
system.cpu.dcache.blockedCycles::no_targets            0                       # number of cycles access was blocked (Cycle)
system.cpu.dcache.blockedCauses::no_mshrs          320                       # number of times access was blocked (Count)
system.cpu.dcache.blockedCauses::no_targets            0                       # number of times access was blocked (Count)
system.cpu.dcache.avgBlocked::no_mshrs      49.984375                       # average number of cycles each access was blocked ((Cycle/Count))
system.cpu.dcache.avgBlocked::no_targets          nan                       # average number of cycles each access was blocked ((Cycle/Count))
system.cpu.dcache.writebacks::writebacks         5738                       # number of writebacks (Count)
system.cpu.dcache.writebacks::total              5738                       # number of writebacks (Count)
system.cpu.dcache.demandMshrHits::cpu.data        18697                       # number of demand (read+write) MSHR hits (Count)
system.cpu.dcache.demandMshrHits::total         18697                       # number of demand (read+write) MSHR hits (Count)
system.cpu.dcache.overallMshrHits::cpu.data        18697                       # number of overall MSHR hits (Count)
system.cpu.dcache.overallMshrHits::total        18697                       # number of overall MSHR hits (Count)
system.cpu.dcache.demandMshrMisses::cpu.data         8403                       # number of demand (read+write) MSHR misses (Count)
system.cpu.dcache.demandMshrMisses::total         8403                       # number of demand (read+write) MSHR misses (Count)
system.cpu.dcache.overallMshrMisses::cpu.data         8403                       # number of overall MSHR misses (Count)
system.cpu.dcache.overallMshrMisses::total         8403                       # number of overall MSHR misses (Count)
system.cpu.dcache.demandMshrMissLatency::cpu.data    460527000                       # number of demand (read+write) MSHR miss ticks (Tick)
system.cpu.dcache.demandMshrMissLatency::total    460527000                       # number of demand (read+write) MSHR miss ticks (Tick)
system.cpu.dcache.overallMshrMissLatency::cpu.data    460527000                       # number of overall MSHR miss ticks (Tick)
system.cpu.dcache.overallMshrMissLatency::total    460527000                       # number of overall MSHR miss ticks (Tick)
system.cpu.dcache.demandMshrMissRate::cpu.data     0.001043                       # mshr miss ratio for demand accesses (Ratio)
system.cpu.dcache.demandMshrMissRate::total     0.001043                       # mshr miss ratio for demand accesses (Ratio)
system.cpu.dcache.overallMshrMissRate::cpu.data     0.001043                       # mshr miss ratio for overall accesses (Ratio)
system.cpu.dcache.overallMshrMissRate::total     0.001043                       # mshr miss ratio for overall accesses (Ratio)
system.cpu.dcache.demandAvgMshrMissLatency::cpu.data 54805.069618                       # average overall mshr miss latency ((Cycle/Count))
system.cpu.dcache.demandAvgMshrMissLatency::total 54805.069618                       # average overall mshr miss latency ((Cycle/Count))
system.cpu.dcache.overallAvgMshrMissLatency::cpu.data 54805.069618                       # average overall mshr miss latency ((Cycle/Count))
system.cpu.dcache.overallAvgMshrMissLatency::total 54805.069618                       # average overall mshr miss latency ((Cycle/Count))
system.cpu.dcache.replacements                   7379                       # number of replacements (Count)
system.cpu.dcache.ReadReq.hits::cpu.data      3937995                       # number of ReadReq hits (Count)
system.cpu.dcache.ReadReq.hits::total         3937995                       # number of ReadReq hits (Count)
system.cpu.dcache.ReadReq.misses::cpu.data        24420                       # number of ReadReq misses (Count)
system.cpu.dcache.ReadReq.misses::total         24420                       # number of ReadReq misses (Count)
system.cpu.dcache.ReadReq.missLatency::cpu.data    982155000                       # number of ReadReq miss ticks (Tick)
system.cpu.dcache.ReadReq.missLatency::total    982155000                       # number of ReadReq miss ticks (Tick)
system.cpu.dcache.ReadReq.accesses::cpu.data      3962415                       # number of ReadReq accesses(hits+misses) (Count)
system.cpu.dcache.ReadReq.accesses::total      3962415                       # number of ReadReq accesses(hits+misses) (Count)
system.cpu.dcache.ReadReq.missRate::cpu.data     0.006163                       # miss rate for ReadReq accesses (Ratio)
system.cpu.dcache.ReadReq.missRate::total     0.006163                       # miss rate for ReadReq accesses (Ratio)
system.cpu.dcache.ReadReq.avgMissLatency::cpu.data 40219.287469                       # average ReadReq miss latency ((Tick/Count))
system.cpu.dcache.ReadReq.avgMissLatency::total 40219.287469                       # average ReadReq miss latency ((Tick/Count))
system.cpu.dcache.ReadReq.mshrHits::cpu.data        17718                       # number of ReadReq MSHR hits (Count)
system.cpu.dcache.ReadReq.mshrHits::total        17718                       # number of ReadReq MSHR hits (Count)
system.cpu.dcache.ReadReq.mshrMisses::cpu.data         6702                       # number of ReadReq MSHR misses (Count)
system.cpu.dcache.ReadReq.mshrMisses::total         6702                       # number of ReadReq MSHR misses (Count)
system.cpu.dcache.ReadReq.mshrMissLatency::cpu.data    335646500                       # number of ReadReq MSHR miss ticks (Tick)
system.cpu.dcache.ReadReq.mshrMissLatency::total    335646500                       # number of ReadReq MSHR miss ticks (Tick)
system.cpu.dcache.ReadReq.mshrMissRate::cpu.data     0.001691                       # mshr miss rate for ReadReq accesses (Ratio)
system.cpu.dcache.ReadReq.mshrMissRate::total     0.001691                       # mshr miss rate for ReadReq accesses (Ratio)
system.cpu.dcache.ReadReq.avgMshrMissLatency::cpu.data 50081.542823                       # average ReadReq mshr miss latency ((Tick/Count))
system.cpu.dcache.ReadReq.avgMshrMissLatency::total 50081.542823                       # average ReadReq mshr miss latency ((Tick/Count))
system.cpu.dcache.WriteReq.hits::cpu.data      4088349                       # number of WriteReq hits (Count)
system.cpu.dcache.WriteReq.hits::total        4088349                       # number of WriteReq hits (Count)
system.cpu.dcache.WriteReq.misses::cpu.data         2680                       # number of WriteReq misses (Count)
system.cpu.dcache.WriteReq.misses::total         2680                       # number of WriteReq misses (Count)
system.cpu.dcache.WriteReq.missLatency::cpu.data    133269000                       # number of WriteReq miss ticks (Tick)
system.cpu.dcache.WriteReq.missLatency::total    133269000                       # number of WriteReq miss ticks (Tick)
system.cpu.dcache.WriteReq.accesses::cpu.data      4091029                       # number of WriteReq accesses(hits+misses) (Count)
system.cpu.dcache.WriteReq.accesses::total      4091029                       # number of WriteReq accesses(hits+misses) (Count)
system.cpu.dcache.WriteReq.missRate::cpu.data     0.000655                       # miss rate for WriteReq accesses (Ratio)
system.cpu.dcache.WriteReq.missRate::total     0.000655                       # miss rate for WriteReq accesses (Ratio)
system.cpu.dcache.WriteReq.avgMissLatency::cpu.data 49727.238806                       # average WriteReq miss latency ((Tick/Count))
system.cpu.dcache.WriteReq.avgMissLatency::total 49727.238806                       # average WriteReq miss latency ((Tick/Count))
system.cpu.dcache.WriteReq.mshrHits::cpu.data          979                       # number of WriteReq MSHR hits (Count)
system.cpu.dcache.WriteReq.mshrHits::total          979                       # number of WriteReq MSHR hits (Count)
system.cpu.dcache.WriteReq.mshrMisses::cpu.data         1701                       # number of WriteReq MSHR misses (Count)
system.cpu.dcache.WriteReq.mshrMisses::total         1701                       # number of WriteReq MSHR misses (Count)
system.cpu.dcache.WriteReq.mshrMissLatency::cpu.data    124880500                       # number of WriteReq MSHR miss ticks (Tick)
system.cpu.dcache.WriteReq.mshrMissLatency::total    124880500                       # number of WriteReq MSHR miss ticks (Tick)
system.cpu.dcache.WriteReq.mshrMissRate::cpu.data     0.000416                       # mshr miss rate for WriteReq accesses (Ratio)
system.cpu.dcache.WriteReq.mshrMissRate::total     0.000416                       # mshr miss rate for WriteReq accesses (Ratio)
system.cpu.dcache.WriteReq.avgMshrMissLatency::cpu.data 73415.931805                       # average WriteReq mshr miss latency ((Tick/Count))
system.cpu.dcache.WriteReq.avgMshrMissLatency::total 73415.931805                       # average WriteReq mshr miss latency ((Tick/Count))
system.cpu.dcache.power_state.pwrStateResidencyTicks::UNDEFINED   5528696000                       # Cumulative time (in ticks) in various power states (Tick)
system.cpu.dcache.tags.tagsInUse          1013.619438                       # Average ticks per tags in use ((Tick/Count))
system.cpu.dcache.tags.totalRefs              8034747                       # Total number of references to valid blocks. (Count)
system.cpu.dcache.tags.sampledRefs               8403                       # Sample count of references to valid blocks. (Count)
system.cpu.dcache.tags.avgRefs             956.176009                       # Average number of references to valid blocks. ((Count/Count))
system.cpu.dcache.tags.warmupTick              168000                       # The tick when the warmup percentage was hit. (Tick)
system.cpu.dcache.tags.occupancies::cpu.data  1013.619438                       # Average occupied blocks per tick, per requestor ((Count/Tick))
system.cpu.dcache.tags.avgOccs::cpu.data     0.989863                       # Average percentage of cache occupancy ((Ratio/Tick))
system.cpu.dcache.tags.avgOccs::total        0.989863                       # Average percentage of cache occupancy ((Ratio/Tick))
system.cpu.dcache.tags.occupanciesTaskId::1024         1024                       # Occupied blocks per task id (Count)
system.cpu.dcache.tags.ageTaskId_1024::0           45                       # Occupied blocks per task id, per block age (Count)
system.cpu.dcache.tags.ageTaskId_1024::1           11                       # Occupied blocks per task id, per block age (Count)
system.cpu.dcache.tags.ageTaskId_1024::2          106                       # Occupied blocks per task id, per block age (Count)
system.cpu.dcache.tags.ageTaskId_1024::3          862                       # Occupied blocks per task id, per block age (Count)
system.cpu.dcache.tags.ratioOccsTaskId::1024            1                       # Ratio of occupied blocks and all blocks, per task id (Ratio)
system.cpu.dcache.tags.tagAccesses           32222179                       # Number of tag accesses (Count)
system.cpu.dcache.tags.dataAccesses          32222179                       # Number of data accesses (Count)
system.cpu.dcache.tags.power_state.pwrStateResidencyTicks::UNDEFINED   5528696000                       # Cumulative time (in ticks) in various power states (Tick)
system.cpu.decode.idleCycles                  3806151                       # Number of cycles decode is idle (Cycle)
system.cpu.decode.blockedCycles                599587                       # Number of cycles decode is blocked (Cycle)
system.cpu.decode.runCycles                   6426334                       # Number of cycles decode is running (Cycle)
system.cpu.decode.unblockCycles                 82902                       # Number of cycles decode is unblocking (Cycle)
system.cpu.decode.squashCycles                  48813                       # Number of cycles decode is squashing (Cycle)
system.cpu.decode.branchResolved              1436075                       # Number of times decode resolved a branch (Count)
system.cpu.decode.branchMispred                  2619                       # Number of times decode detected a branch misprediction (Count)
system.cpu.decode.decodedInsts               37421148                       # Number of instructions handled by decode (Count)
system.cpu.decode.squashedInsts                  3897                       # Number of squashed instructions handled by decode (Count)
system.cpu.fetch.icacheStallCycles            3892940                       # Number of cycles fetch is stalled on an Icache miss (Cycle)
system.cpu.fetch.insts                       21146193                       # Number of instructions fetch has processed (Count)
system.cpu.fetch.branches                     3560679                       # Number of branches that fetch encountered (Count)
system.cpu.fetch.predictedBranches            2573759                       # Number of branches that fetch has predicted taken (Count)
system.cpu.fetch.cycles                       7003512                       # Number of cycles fetch has run and was not squashing or blocked (Cycle)
system.cpu.fetch.squashCycles                  102846                       # Number of cycles fetch has spent squashing (Cycle)
system.cpu.fetch.miscStallCycles                 2205                       # Number of cycles fetch has spent waiting on interrupts, or bad addresses, or out of MSHRs (Cycle)
system.cpu.fetch.pendingTrapStallCycles         13576                       # Number of stall cycles due to pending traps (Cycle)
system.cpu.fetch.pendingQuiesceStallCycles          117                       # Number of stall cycles due to pending quiesce instructions (Cycle)
system.cpu.fetch.icacheWaitRetryStallCycles           14                       # Number of stall cycles due to full MSHR (Cycle)
system.cpu.fetch.cacheLines                   3823344                       # Number of cache lines fetched (Count)
system.cpu.fetch.icacheSquashes                 17156                       # Number of outstanding Icache misses that were squashed (Count)
system.cpu.fetch.nisnDist::samples           10963787                       # Number of instructions fetched each cycle (Total) (Count)
system.cpu.fetch.nisnDist::mean              3.437337                       # Number of instructions fetched each cycle (Total) (Count)
system.cpu.fetch.nisnDist::stdev             3.480670                       # Number of instructions fetched each cycle (Total) (Count)
system.cpu.fetch.nisnDist::underflows               0      0.00%      0.00% # Number of instructions fetched each cycle (Total) (Count)
system.cpu.fetch.nisnDist::0                  4340116     39.59%     39.59% # Number of instructions fetched each cycle (Total) (Count)
system.cpu.fetch.nisnDist::1                  1098462     10.02%     49.60% # Number of instructions fetched each cycle (Total) (Count)
system.cpu.fetch.nisnDist::2                   107958      0.98%     50.59% # Number of instructions fetched each cycle (Total) (Count)
system.cpu.fetch.nisnDist::3                   157075      1.43%     52.02% # Number of instructions fetched each cycle (Total) (Count)
system.cpu.fetch.nisnDist::4                  1132324     10.33%     62.35% # Number of instructions fetched each cycle (Total) (Count)
system.cpu.fetch.nisnDist::5                   117420      1.07%     63.42% # Number of instructions fetched each cycle (Total) (Count)
system.cpu.fetch.nisnDist::6                   595630      5.43%     68.85% # Number of instructions fetched each cycle (Total) (Count)
system.cpu.fetch.nisnDist::7                   107962      0.98%     69.84% # Number of instructions fetched each cycle (Total) (Count)
system.cpu.fetch.nisnDist::8                  3306840     30.16%    100.00% # Number of instructions fetched each cycle (Total) (Count)
system.cpu.fetch.nisnDist::overflows                0      0.00%    100.00% # Number of instructions fetched each cycle (Total) (Count)
system.cpu.fetch.nisnDist::min_value                0                       # Number of instructions fetched each cycle (Total) (Count)
system.cpu.fetch.nisnDist::max_value                8                       # Number of instructions fetched each cycle (Total) (Count)
system.cpu.fetch.nisnDist::total             10963787                       # Number of instructions fetched each cycle (Total) (Count)
system.cpu.fetch.branchRate                  0.322018                       # Number of branch fetches per cycle (Ratio)
system.cpu.fetch.rate                        1.912403                       # Number of inst fetches per cycle ((Count/Cycle))
system.cpu.icache.demandHits::cpu.inst        3821592                       # number of demand (read+write) hits (Count)
system.cpu.icache.demandHits::total           3821592                       # number of demand (read+write) hits (Count)
system.cpu.icache.overallHits::cpu.inst       3821592                       # number of overall hits (Count)
system.cpu.icache.overallHits::total          3821592                       # number of overall hits (Count)
system.cpu.icache.demandMisses::cpu.inst         1752                       # number of demand (read+write) misses (Count)
system.cpu.icache.demandMisses::total            1752                       # number of demand (read+write) misses (Count)
system.cpu.icache.overallMisses::cpu.inst         1752                       # number of overall misses (Count)
system.cpu.icache.overallMisses::total           1752                       # number of overall misses (Count)
system.cpu.icache.demandMissLatency::cpu.inst    123512000                       # number of demand (read+write) miss ticks (Tick)
system.cpu.icache.demandMissLatency::total    123512000                       # number of demand (read+write) miss ticks (Tick)
system.cpu.icache.overallMissLatency::cpu.inst    123512000                       # number of overall miss ticks (Tick)
system.cpu.icache.overallMissLatency::total    123512000                       # number of overall miss ticks (Tick)
system.cpu.icache.demandAccesses::cpu.inst      3823344                       # number of demand (read+write) accesses (Count)
system.cpu.icache.demandAccesses::total       3823344                       # number of demand (read+write) accesses (Count)
system.cpu.icache.overallAccesses::cpu.inst      3823344                       # number of overall (read+write) accesses (Count)
system.cpu.icache.overallAccesses::total      3823344                       # number of overall (read+write) accesses (Count)
system.cpu.icache.demandMissRate::cpu.inst     0.000458                       # miss rate for demand accesses (Ratio)
system.cpu.icache.demandMissRate::total      0.000458                       # miss rate for demand accesses (Ratio)
system.cpu.icache.overallMissRate::cpu.inst     0.000458                       # miss rate for overall accesses (Ratio)
system.cpu.icache.overallMissRate::total     0.000458                       # miss rate for overall accesses (Ratio)
system.cpu.icache.demandAvgMissLatency::cpu.inst 70497.716895                       # average overall miss latency ((Cycle/Count))
system.cpu.icache.demandAvgMissLatency::total 70497.716895                       # average overall miss latency ((Cycle/Count))
system.cpu.icache.overallAvgMissLatency::cpu.inst 70497.716895                       # average overall miss latency ((Cycle/Count))
system.cpu.icache.overallAvgMissLatency::total 70497.716895                       # average overall miss latency ((Cycle/Count))
system.cpu.icache.blockedCycles::no_mshrs          135                       # number of cycles access was blocked (Cycle)
system.cpu.icache.blockedCycles::no_targets            0                       # number of cycles access was blocked (Cycle)
system.cpu.icache.blockedCauses::no_mshrs            2                       # number of times access was blocked (Count)
system.cpu.icache.blockedCauses::no_targets            0                       # number of times access was blocked (Count)
system.cpu.icache.avgBlocked::no_mshrs      67.500000                       # average number of cycles each access was blocked ((Cycle/Count))
system.cpu.icache.avgBlocked::no_targets          nan                       # average number of cycles each access was blocked ((Cycle/Count))
system.cpu.icache.demandMshrHits::cpu.inst          427                       # number of demand (read+write) MSHR hits (Count)
system.cpu.icache.demandMshrHits::total           427                       # number of demand (read+write) MSHR hits (Count)
system.cpu.icache.overallMshrHits::cpu.inst          427                       # number of overall MSHR hits (Count)
system.cpu.icache.overallMshrHits::total          427                       # number of overall MSHR hits (Count)
system.cpu.icache.demandMshrMisses::cpu.inst         1325                       # number of demand (read+write) MSHR misses (Count)
system.cpu.icache.demandMshrMisses::total         1325                       # number of demand (read+write) MSHR misses (Count)
system.cpu.icache.overallMshrMisses::cpu.inst         1325                       # number of overall MSHR misses (Count)
system.cpu.icache.overallMshrMisses::total         1325                       # number of overall MSHR misses (Count)
system.cpu.icache.demandMshrMissLatency::cpu.inst     97024000                       # number of demand (read+write) MSHR miss ticks (Tick)
system.cpu.icache.demandMshrMissLatency::total     97024000                       # number of demand (read+write) MSHR miss ticks (Tick)
system.cpu.icache.overallMshrMissLatency::cpu.inst     97024000                       # number of overall MSHR miss ticks (Tick)
system.cpu.icache.overallMshrMissLatency::total     97024000                       # number of overall MSHR miss ticks (Tick)
system.cpu.icache.demandMshrMissRate::cpu.inst     0.000347                       # mshr miss ratio for demand accesses (Ratio)
system.cpu.icache.demandMshrMissRate::total     0.000347                       # mshr miss ratio for demand accesses (Ratio)
system.cpu.icache.overallMshrMissRate::cpu.inst     0.000347                       # mshr miss ratio for overall accesses (Ratio)
system.cpu.icache.overallMshrMissRate::total     0.000347                       # mshr miss ratio for overall accesses (Ratio)
system.cpu.icache.demandAvgMshrMissLatency::cpu.inst 73225.660377                       # average overall mshr miss latency ((Cycle/Count))
system.cpu.icache.demandAvgMshrMissLatency::total 73225.660377                       # average overall mshr miss latency ((Cycle/Count))
system.cpu.icache.overallAvgMshrMissLatency::cpu.inst 73225.660377                       # average overall mshr miss latency ((Cycle/Count))
system.cpu.icache.overallAvgMshrMissLatency::total 73225.660377                       # average overall mshr miss latency ((Cycle/Count))
system.cpu.icache.replacements                    360                       # number of replacements (Count)
system.cpu.icache.ReadReq.hits::cpu.inst      3821592                       # number of ReadReq hits (Count)
system.cpu.icache.ReadReq.hits::total         3821592                       # number of ReadReq hits (Count)
system.cpu.icache.ReadReq.misses::cpu.inst         1752                       # number of ReadReq misses (Count)
system.cpu.icache.ReadReq.misses::total          1752                       # number of ReadReq misses (Count)
system.cpu.icache.ReadReq.missLatency::cpu.inst    123512000                       # number of ReadReq miss ticks (Tick)
system.cpu.icache.ReadReq.missLatency::total    123512000                       # number of ReadReq miss ticks (Tick)
system.cpu.icache.ReadReq.accesses::cpu.inst      3823344                       # number of ReadReq accesses(hits+misses) (Count)
system.cpu.icache.ReadReq.accesses::total      3823344                       # number of ReadReq accesses(hits+misses) (Count)
system.cpu.icache.ReadReq.missRate::cpu.inst     0.000458                       # miss rate for ReadReq accesses (Ratio)
system.cpu.icache.ReadReq.missRate::total     0.000458                       # miss rate for ReadReq accesses (Ratio)
system.cpu.icache.ReadReq.avgMissLatency::cpu.inst 70497.716895                       # average ReadReq miss latency ((Tick/Count))
system.cpu.icache.ReadReq.avgMissLatency::total 70497.716895                       # average ReadReq miss latency ((Tick/Count))
system.cpu.icache.ReadReq.mshrHits::cpu.inst          427                       # number of ReadReq MSHR hits (Count)
system.cpu.icache.ReadReq.mshrHits::total          427                       # number of ReadReq MSHR hits (Count)
system.cpu.icache.ReadReq.mshrMisses::cpu.inst         1325                       # number of ReadReq MSHR misses (Count)
system.cpu.icache.ReadReq.mshrMisses::total         1325                       # number of ReadReq MSHR misses (Count)
system.cpu.icache.ReadReq.mshrMissLatency::cpu.inst     97024000                       # number of ReadReq MSHR miss ticks (Tick)
system.cpu.icache.ReadReq.mshrMissLatency::total     97024000                       # number of ReadReq MSHR miss ticks (Tick)
system.cpu.icache.ReadReq.mshrMissRate::cpu.inst     0.000347                       # mshr miss rate for ReadReq accesses (Ratio)
system.cpu.icache.ReadReq.mshrMissRate::total     0.000347                       # mshr miss rate for ReadReq accesses (Ratio)
system.cpu.icache.ReadReq.avgMshrMissLatency::cpu.inst 73225.660377                       # average ReadReq mshr miss latency ((Tick/Count))
system.cpu.icache.ReadReq.avgMshrMissLatency::total 73225.660377                       # average ReadReq mshr miss latency ((Tick/Count))
system.cpu.icache.power_state.pwrStateResidencyTicks::UNDEFINED   5528696000                       # Cumulative time (in ticks) in various power states (Tick)
system.cpu.icache.tags.tagsInUse           800.310635                       # Average ticks per tags in use ((Tick/Count))
system.cpu.icache.tags.totalRefs              3822916                       # Total number of references to valid blocks. (Count)
system.cpu.icache.tags.sampledRefs               1324                       # Sample count of references to valid blocks. (Count)
system.cpu.icache.tags.avgRefs            2887.398792                       # Average number of references to valid blocks. ((Count/Count))
system.cpu.icache.tags.warmupTick               82000                       # The tick when the warmup percentage was hit. (Tick)
system.cpu.icache.tags.occupancies::cpu.inst   800.310635                       # Average occupied blocks per tick, per requestor ((Count/Tick))
system.cpu.icache.tags.avgOccs::cpu.inst     0.781553                       # Average percentage of cache occupancy ((Ratio/Tick))
system.cpu.icache.tags.avgOccs::total        0.781553                       # Average percentage of cache occupancy ((Ratio/Tick))
system.cpu.icache.tags.occupanciesTaskId::1024          964                       # Occupied blocks per task id (Count)
system.cpu.icache.tags.ageTaskId_1024::0           88                       # Occupied blocks per task id, per block age (Count)
system.cpu.icache.tags.ageTaskId_1024::2            8                       # Occupied blocks per task id, per block age (Count)
system.cpu.icache.tags.ageTaskId_1024::3          868                       # Occupied blocks per task id, per block age (Count)
system.cpu.icache.tags.ratioOccsTaskId::1024     0.941406                       # Ratio of occupied blocks and all blocks, per task id (Ratio)
system.cpu.icache.tags.tagAccesses           15294700                       # Number of tag accesses (Count)
system.cpu.icache.tags.dataAccesses          15294700                       # Number of data accesses (Count)
system.cpu.icache.tags.power_state.pwrStateResidencyTicks::UNDEFINED   5528696000                       # Cumulative time (in ticks) in various power states (Tick)
system.cpu.iew.idleCycles                           0                       # Number of cycles IEW is idle (Cycle)
system.cpu.iew.squashCycles                     48813                       # Number of cycles IEW is squashing (Cycle)
system.cpu.iew.blockCycles                     250446                       # Number of cycles IEW is blocking (Cycle)
system.cpu.iew.unblockCycles                    25865                       # Number of cycles IEW is unblocking (Cycle)
system.cpu.iew.dispatchedInsts               36871804                       # Number of instructions dispatched to IQ (Count)
system.cpu.iew.dispSquashedInsts                23583                       # Number of squashed instructions skipped by dispatch (Count)
system.cpu.iew.dispLoadInsts                  8218695                       # Number of dispatched load instructions (Count)
system.cpu.iew.dispStoreInsts                 4190457                       # Number of dispatched store instructions (Count)
system.cpu.iew.dispNonSpecInsts                    35                       # Number of dispatched non-speculative instructions (Count)
system.cpu.iew.iqFullEvents                      2219                       # Number of times the IQ has become full, causing a stall (Count)
system.cpu.iew.lsqFullEvents                    23231                       # Number of times the LSQ has become full, causing a stall (Count)
system.cpu.iew.memOrderViolationEvents            521                       # Number of memory order violations (Count)
system.cpu.iew.predictedTakenIncorrect          19374                       # Number of branches that were predicted taken incorrectly (Count)
system.cpu.iew.predictedNotTakenIncorrect        34289                       # Number of branches that were predicted not taken incorrectly (Count)
system.cpu.iew.branchMispredicts                53663                       # Number of branch mispredicts detected at execute (Count)
system.cpu.iew.instsToCommit                 36313871                       # Cumulative count of insts sent to commit (Count)
system.cpu.iew.writebackCount                36294177                       # Cumulative count of insts written-back (Count)
system.cpu.iew.producerInst                  23266811                       # Number of instructions producing a value (Count)
system.cpu.iew.consumerInst                  30997175                       # Number of instructions consuming a value (Count)
system.cpu.iew.wbRate                        3.282345                       # Insts written-back per cycle ((Count/Cycle))
system.cpu.iew.wbFanout                      0.750611                       # Average fanout of values written-back ((Count/Count))
system.cpu.interrupts.clk_domain.clock           8000                       # Clock period in ticks (Tick)
system.cpu.l2cache.demandHits::cpu.inst            18                       # number of demand (read+write) hits (Count)
system.cpu.l2cache.demandHits::cpu.data          2743                       # number of demand (read+write) hits (Count)
system.cpu.l2cache.demandHits::total             2761                       # number of demand (read+write) hits (Count)
system.cpu.l2cache.overallHits::cpu.inst           18                       # number of overall hits (Count)
system.cpu.l2cache.overallHits::cpu.data         2743                       # number of overall hits (Count)
system.cpu.l2cache.overallHits::total            2761                       # number of overall hits (Count)
system.cpu.l2cache.demandMisses::cpu.inst         1307                       # number of demand (read+write) misses (Count)
system.cpu.l2cache.demandMisses::cpu.data         5660                       # number of demand (read+write) misses (Count)
system.cpu.l2cache.demandMisses::total           6967                       # number of demand (read+write) misses (Count)
system.cpu.l2cache.overallMisses::cpu.inst         1307                       # number of overall misses (Count)
system.cpu.l2cache.overallMisses::cpu.data         5660                       # number of overall misses (Count)
system.cpu.l2cache.overallMisses::total          6967                       # number of overall misses (Count)
system.cpu.l2cache.demandMissLatency::cpu.inst     94840000                       # number of demand (read+write) miss ticks (Tick)
system.cpu.l2cache.demandMissLatency::cpu.data    419024500                       # number of demand (read+write) miss ticks (Tick)
system.cpu.l2cache.demandMissLatency::total    513864500                       # number of demand (read+write) miss ticks (Tick)
system.cpu.l2cache.overallMissLatency::cpu.inst     94840000                       # number of overall miss ticks (Tick)
system.cpu.l2cache.overallMissLatency::cpu.data    419024500                       # number of overall miss ticks (Tick)
system.cpu.l2cache.overallMissLatency::total    513864500                       # number of overall miss ticks (Tick)
system.cpu.l2cache.demandAccesses::cpu.inst         1325                       # number of demand (read+write) accesses (Count)
system.cpu.l2cache.demandAccesses::cpu.data         8403                       # number of demand (read+write) accesses (Count)
system.cpu.l2cache.demandAccesses::total         9728                       # number of demand (read+write) accesses (Count)
system.cpu.l2cache.overallAccesses::cpu.inst         1325                       # number of overall (read+write) accesses (Count)
system.cpu.l2cache.overallAccesses::cpu.data         8403                       # number of overall (read+write) accesses (Count)
system.cpu.l2cache.overallAccesses::total         9728                       # number of overall (read+write) accesses (Count)
system.cpu.l2cache.demandMissRate::cpu.inst     0.986415                       # miss rate for demand accesses (Ratio)
system.cpu.l2cache.demandMissRate::cpu.data     0.673569                       # miss rate for demand accesses (Ratio)
system.cpu.l2cache.demandMissRate::total     0.716180                       # miss rate for demand accesses (Ratio)
system.cpu.l2cache.overallMissRate::cpu.inst     0.986415                       # miss rate for overall accesses (Ratio)
system.cpu.l2cache.overallMissRate::cpu.data     0.673569                       # miss rate for overall accesses (Ratio)
system.cpu.l2cache.overallMissRate::total     0.716180                       # miss rate for overall accesses (Ratio)
system.cpu.l2cache.demandAvgMissLatency::cpu.inst 72563.121653                       # average overall miss latency ((Cycle/Count))
system.cpu.l2cache.demandAvgMissLatency::cpu.data 74032.597173                       # average overall miss latency ((Cycle/Count))
system.cpu.l2cache.demandAvgMissLatency::total 73756.925506                       # average overall miss latency ((Cycle/Count))
system.cpu.l2cache.overallAvgMissLatency::cpu.inst 72563.121653                       # average overall miss latency ((Cycle/Count))
system.cpu.l2cache.overallAvgMissLatency::cpu.data 74032.597173                       # average overall miss latency ((Cycle/Count))
system.cpu.l2cache.overallAvgMissLatency::total 73756.925506                       # average overall miss latency ((Cycle/Count))
system.cpu.l2cache.blockedCycles::no_mshrs            0                       # number of cycles access was blocked (Cycle)
system.cpu.l2cache.blockedCycles::no_targets            0                       # number of cycles access was blocked (Cycle)
system.cpu.l2cache.blockedCauses::no_mshrs            0                       # number of times access was blocked (Count)
system.cpu.l2cache.blockedCauses::no_targets            0                       # number of times access was blocked (Count)
system.cpu.l2cache.avgBlocked::no_mshrs           nan                       # average number of cycles each access was blocked ((Cycle/Count))
system.cpu.l2cache.avgBlocked::no_targets          nan                       # average number of cycles each access was blocked ((Cycle/Count))
system.cpu.l2cache.writebacks::writebacks           42                       # number of writebacks (Count)
system.cpu.l2cache.writebacks::total               42                       # number of writebacks (Count)
system.cpu.l2cache.demandMshrMisses::cpu.inst         1307                       # number of demand (read+write) MSHR misses (Count)
system.cpu.l2cache.demandMshrMisses::cpu.data         5660                       # number of demand (read+write) MSHR misses (Count)
system.cpu.l2cache.demandMshrMisses::total         6967                       # number of demand (read+write) MSHR misses (Count)
system.cpu.l2cache.overallMshrMisses::cpu.inst         1307                       # number of overall MSHR misses (Count)
system.cpu.l2cache.overallMshrMisses::cpu.data         5660                       # number of overall MSHR misses (Count)
system.cpu.l2cache.overallMshrMisses::total         6967                       # number of overall MSHR misses (Count)
system.cpu.l2cache.demandMshrMissLatency::cpu.inst     81780000                       # number of demand (read+write) MSHR miss ticks (Tick)
system.cpu.l2cache.demandMshrMissLatency::cpu.data    362424500                       # number of demand (read+write) MSHR miss ticks (Tick)
system.cpu.l2cache.demandMshrMissLatency::total    444204500                       # number of demand (read+write) MSHR miss ticks (Tick)
system.cpu.l2cache.overallMshrMissLatency::cpu.inst     81780000                       # number of overall MSHR miss ticks (Tick)
system.cpu.l2cache.overallMshrMissLatency::cpu.data    362424500                       # number of overall MSHR miss ticks (Tick)
system.cpu.l2cache.overallMshrMissLatency::total    444204500                       # number of overall MSHR miss ticks (Tick)
system.cpu.l2cache.demandMshrMissRate::cpu.inst     0.986415                       # mshr miss ratio for demand accesses (Ratio)
[...]
system.mem_ctrl.dram.bytesWritten::total         2688                       # Number of bytes written to this memory (Byte)
system.mem_ctrl.dram.numReads::cpu.inst          1306                       # Number of read requests responded to by this memory (Count)
system.mem_ctrl.dram.numReads::cpu.data          5660                       # Number of read requests responded to by this memory (Count)
system.mem_ctrl.dram.numReads::total             6966                       # Number of read requests responded to by this memory (Count)
system.mem_ctrl.dram.numWrites::writebacks           42                       # Number of write requests responded to by this memory (Count)
system.mem_ctrl.dram.numWrites::total              42                       # Number of write requests responded to by this memory (Count)
system.mem_ctrl.dram.bwRead::cpu.inst        15118212                       # Total read bandwidth from this memory ((Byte/Second))
system.mem_ctrl.dram.bwRead::cpu.data        65519971                       # Total read bandwidth from this memory ((Byte/Second))
system.mem_ctrl.dram.bwRead::total           80638183                       # Total read bandwidth from this memory ((Byte/Second))
system.mem_ctrl.dram.bwInstRead::cpu.inst     15118212                       # Instruction read bandwidth from this memory ((Byte/Second))
system.mem_ctrl.dram.bwInstRead::total       15118212                       # Instruction read bandwidth from this memory ((Byte/Second))
system.mem_ctrl.dram.bwWrite::writebacks       486191                       # Write bandwidth from this memory ((Byte/Second))
system.mem_ctrl.dram.bwWrite::total            486191                       # Write bandwidth from this memory ((Byte/Second))
system.mem_ctrl.dram.bwTotal::writebacks       486191                       # Total bandwidth to/from this memory ((Byte/Second))
system.mem_ctrl.dram.bwTotal::cpu.inst       15118212                       # Total bandwidth to/from this memory ((Byte/Second))
system.mem_ctrl.dram.bwTotal::cpu.data       65519971                       # Total bandwidth to/from this memory ((Byte/Second))
system.mem_ctrl.dram.bwTotal::total          81124374                       # Total bandwidth to/from this memory ((Byte/Second))
system.mem_ctrl.dram.readBursts                  6961                       # Number of DRAM read bursts (Count)
system.mem_ctrl.dram.writeBursts                   18                       # Number of DRAM write bursts (Count)
system.mem_ctrl.dram.perBankRdBursts::0           540                       # Per bank write bursts (Count)
system.mem_ctrl.dram.perBankRdBursts::1           531                       # Per bank write bursts (Count)
system.mem_ctrl.dram.perBankRdBursts::2           667                       # Per bank write bursts (Count)
system.mem_ctrl.dram.perBankRdBursts::3           472                       # Per bank write bursts (Count)
system.mem_ctrl.dram.perBankRdBursts::4           452                       # Per bank write bursts (Count)
system.mem_ctrl.dram.perBankRdBursts::5           377                       # Per bank write bursts (Count)
system.mem_ctrl.dram.perBankRdBursts::6           346                       # Per bank write bursts (Count)
system.mem_ctrl.dram.perBankRdBursts::7           317                       # Per bank write bursts (Count)
system.mem_ctrl.dram.perBankRdBursts::8           343                       # Per bank write bursts (Count)
system.mem_ctrl.dram.perBankRdBursts::9           414                       # Per bank write bursts (Count)
system.mem_ctrl.dram.perBankRdBursts::10          478                       # Per bank write bursts (Count)
system.mem_ctrl.dram.perBankRdBursts::11          413                       # Per bank write bursts (Count)
system.mem_ctrl.dram.perBankRdBursts::12          333                       # Per bank write bursts (Count)
system.mem_ctrl.dram.perBankRdBursts::13          385                       # Per bank write bursts (Count)
system.mem_ctrl.dram.perBankRdBursts::14          392                       # Per bank write bursts (Count)
system.mem_ctrl.dram.perBankRdBursts::15          501                       # Per bank write bursts (Count)
system.mem_ctrl.dram.perBankWrBursts::0             0                       # Per bank write bursts (Count)
system.mem_ctrl.dram.perBankWrBursts::1             0                       # Per bank write bursts (Count)
system.mem_ctrl.dram.perBankWrBursts::2             2                       # Per bank write bursts (Count)
system.mem_ctrl.dram.perBankWrBursts::3             0                       # Per bank write bursts (Count)
system.mem_ctrl.dram.perBankWrBursts::4             0                       # Per bank write bursts (Count)
system.mem_ctrl.dram.perBankWrBursts::5             0                       # Per bank write bursts (Count)
system.mem_ctrl.dram.perBankWrBursts::6             0                       # Per bank write bursts (Count)
system.mem_ctrl.dram.perBankWrBursts::7             0                       # Per bank write bursts (Count)
system.mem_ctrl.dram.perBankWrBursts::8             0                       # Per bank write bursts (Count)
system.mem_ctrl.dram.perBankWrBursts::9             2                       # Per bank write bursts (Count)
system.mem_ctrl.dram.perBankWrBursts::10           14                       # Per bank write bursts (Count)
system.mem_ctrl.dram.perBankWrBursts::11            0                       # Per bank write bursts (Count)
system.mem_ctrl.dram.perBankWrBursts::12            0                       # Per bank write bursts (Count)
system.mem_ctrl.dram.perBankWrBursts::13            0                       # Per bank write bursts (Count)
system.mem_ctrl.dram.perBankWrBursts::14            0                       # Per bank write bursts (Count)
system.mem_ctrl.dram.perBankWrBursts::15            0                       # Per bank write bursts (Count)
system.mem_ctrl.dram.totQLat                 65193000                       # Total ticks spent queuing (Tick)
system.mem_ctrl.dram.totBusLat               34805000                       # Total ticks spent in databus transfers (Tick)
system.mem_ctrl.dram.totMemAccLat           195711750                       # Total ticks spent from burst creation until serviced by the DRAM (Tick)
system.mem_ctrl.dram.avgQLat                  9365.46                       # Average queueing delay per DRAM burst ((Tick/Count))
system.mem_ctrl.dram.avgBusLat                5000.00                       # Average bus latency per DRAM burst ((Tick/Count))
system.mem_ctrl.dram.avgMemAccLat            28115.46                       # Average memory access latency per DRAM burst ((Tick/Count))
system.mem_ctrl.dram.readRowHits                 5824                       # Number of row buffer hits during reads (Count)
system.mem_ctrl.dram.writeRowHits                  15                       # Number of row buffer hits during writes (Count)
system.mem_ctrl.dram.readRowHitRate             83.67                       # Row buffer hit rate for reads (Ratio)
system.mem_ctrl.dram.writeRowHitRate            83.33                       # Row buffer hit rate for writes (Ratio)
system.mem_ctrl.dram.bytesPerActivate::samples         1138                       # Bytes accessed per row activation (Byte)
system.mem_ctrl.dram.bytesPerActivate::mean   392.379613                       # Bytes accessed per row activation (Byte)
system.mem_ctrl.dram.bytesPerActivate::gmean   281.838446                       # Bytes accessed per row activation (Byte)
system.mem_ctrl.dram.bytesPerActivate::stdev   314.541254                       # Bytes accessed per row activation (Byte)
system.mem_ctrl.dram.bytesPerActivate::0-127          137     12.04%     12.04% # Bytes accessed per row activation (Byte)
system.mem_ctrl.dram.bytesPerActivate::128-255          408     35.85%     47.89% # Bytes accessed per row activation (Byte)
system.mem_ctrl.dram.bytesPerActivate::256-383           85      7.47%     55.36% # Bytes accessed per row activation (Byte)
system.mem_ctrl.dram.bytesPerActivate::384-511          197     17.31%     72.67% # Bytes accessed per row activation (Byte)
system.mem_ctrl.dram.bytesPerActivate::512-639           74      6.50%     79.17% # Bytes accessed per row activation (Byte)
system.mem_ctrl.dram.bytesPerActivate::640-767           23      2.02%     81.20% # Bytes accessed per row activation (Byte)
system.mem_ctrl.dram.bytesPerActivate::768-895           37      3.25%     84.45% # Bytes accessed per row activation (Byte)
system.mem_ctrl.dram.bytesPerActivate::896-1023           27      2.37%     86.82% # Bytes accessed per row activation (Byte)
system.mem_ctrl.dram.bytesPerActivate::1024-1151          150     13.18%    100.00% # Bytes accessed per row activation (Byte)
system.mem_ctrl.dram.bytesPerActivate::total         1138                       # Bytes accessed per row activation (Byte)
system.mem_ctrl.dram.bytesRead                 445504                       # Total bytes read (Byte)
system.mem_ctrl.dram.bytesWritten                1152                       # Total bytes written (Byte)
system.mem_ctrl.dram.avgRdBW                80.580303                       # Average DRAM read bandwidth in MiBytes/s ((Byte/Second))
system.mem_ctrl.dram.avgWrBW                 0.208367                       # Average DRAM write bandwidth in MiBytes/s ((Byte/Second))
system.mem_ctrl.dram.peakBW                  12800.00                       # Theoretical peak bandwidth in MiByte/s ((Byte/Second))
system.mem_ctrl.dram.busUtil                     0.63                       # Data bus utilization in percentage (Ratio)
system.mem_ctrl.dram.busUtilRead                 0.63                       # Data bus utilization in percentage for reads (Ratio)
system.mem_ctrl.dram.busUtilWrite                0.00                       # Data bus utilization in percentage for writes (Ratio)
system.mem_ctrl.dram.pageHitRate                83.67                       # Row buffer hit rate, read and write combined (Ratio)
system.mem_ctrl.dram.power_state.pwrStateResidencyTicks::UNDEFINED   5528696000                       # Cumulative time (in ticks) in various power states (Tick)
system.mem_ctrl.dram.rank0.actEnergy          4126920                       # Energy for activate commands per rank (pJ) (Joule)
system.mem_ctrl.dram.rank0.preEnergy          2185920                       # Energy for precharge commands per rank (pJ) (Joule)
system.mem_ctrl.dram.rank0.readEnergy        26432280                       # Energy for read commands per rank (pJ) (Joule)
system.mem_ctrl.dram.rank0.writeEnergy          10440                       # Energy for write commands per rank (pJ) (Joule)
system.mem_ctrl.dram.rank0.refreshEnergy 436394400.000000                       # Energy for refresh commands per rank (pJ) (Joule)
system.mem_ctrl.dram.rank0.actBackEnergy    779131860                       # Energy for active background per rank (pJ) (Joule)
system.mem_ctrl.dram.rank0.preBackEnergy   1466908320                       # Energy for precharge background per rank (pJ) (Joule)
system.mem_ctrl.dram.rank0.actPowerDownEnergy            0                       # Energy for active power-down per rank (pJ) (Joule)
system.mem_ctrl.dram.rank0.prePowerDownEnergy            0                       # Energy for precharge power-down per rank (pJ) (Joule)
system.mem_ctrl.dram.rank0.selfRefreshEnergy            0                       # Energy for self refresh per rank (pJ) (Joule)
system.mem_ctrl.dram.rank0.totalEnergy     2715190140                       # Total energy per rank (pJ) (Joule)
system.mem_ctrl.dram.rank0.averagePower    491.108598                       # Core power per rank (mW) (Watt)
system.mem_ctrl.dram.rank0.totalIdleTime            0                       # Total Idle time Per DRAM Rank (Tick)
system.mem_ctrl.dram.rank0.pwrStateTime::IDLE   3805690000                       # Time in different power states (Tick)
system.mem_ctrl.dram.rank0.pwrStateTime::REF    184600000                       # Time in different power states (Tick)
system.mem_ctrl.dram.rank0.pwrStateTime::SREF            0                       # Time in different power states (Tick)
system.mem_ctrl.dram.rank0.pwrStateTime::PRE_PDN            0                       # Time in different power states (Tick)
system.mem_ctrl.dram.rank0.pwrStateTime::ACT   1538406000                       # Time in different power states (Tick)
system.mem_ctrl.dram.rank0.pwrStateTime::ACT_PDN            0                       # Time in different power states (Tick)
system.mem_ctrl.dram.rank1.actEnergy          4012680                       # Energy for activate commands per rank (pJ) (Joule)
system.mem_ctrl.dram.rank1.preEnergy          2132790                       # Energy for precharge commands per rank (pJ) (Joule)
system.mem_ctrl.dram.rank1.readEnergy        23269260                       # Energy for read commands per rank (pJ) (Joule)
system.mem_ctrl.dram.rank1.writeEnergy          83520                       # Energy for write commands per rank (pJ) (Joule)
system.mem_ctrl.dram.rank1.refreshEnergy 436394400.000000                       # Energy for refresh commands per rank (pJ) (Joule)
system.mem_ctrl.dram.rank1.actBackEnergy    781773240                       # Energy for active background per rank (pJ) (Joule)
system.mem_ctrl.dram.rank1.preBackEnergy   1464684000                       # Energy for precharge background per rank (pJ) (Joule)
system.mem_ctrl.dram.rank1.actPowerDownEnergy            0                       # Energy for active power-down per rank (pJ) (Joule)
system.mem_ctrl.dram.rank1.prePowerDownEnergy            0                       # Energy for precharge power-down per rank (pJ) (Joule)
system.mem_ctrl.dram.rank1.selfRefreshEnergy            0                       # Energy for self refresh per rank (pJ) (Joule)
system.mem_ctrl.dram.rank1.totalEnergy     2712349890                       # Total energy per rank (pJ) (Joule)
system.mem_ctrl.dram.rank1.averagePower    490.594869                       # Core power per rank (mW) (Watt)
system.mem_ctrl.dram.rank1.totalIdleTime            0                       # Total Idle time Per DRAM Rank (Tick)
system.mem_ctrl.dram.rank1.pwrStateTime::IDLE   3800246750                       # Time in different power states (Tick)
system.mem_ctrl.dram.rank1.pwrStateTime::REF    184600000                       # Time in different power states (Tick)
system.mem_ctrl.dram.rank1.pwrStateTime::SREF            0                       # Time in different power states (Tick)
system.mem_ctrl.dram.rank1.pwrStateTime::PRE_PDN            0                       # Time in different power states (Tick)
system.mem_ctrl.dram.rank1.pwrStateTime::ACT   1543849250                       # Time in different power states (Tick)
system.mem_ctrl.dram.rank1.pwrStateTime::ACT_PDN            0                       # Time in different power states (Tick)
system.mem_ctrl.power_state.pwrStateResidencyTicks::UNDEFINED   5528696000                       # Cumulative time (in ticks) in various power states (Tick)
system.membus.transDist::ReadResp                5313                       # Transaction distribution (Count)
system.membus.transDist::WritebackDirty            42                       # Transaction distribution (Count)
system.membus.transDist::CleanEvict                94                       # Transaction distribution (Count)
system.membus.transDist::ReadExReq               1653                       # Transaction distribution (Count)
system.membus.transDist::ReadExResp              1653                       # Transaction distribution (Count)
system.membus.transDist::ReadSharedReq           5313                       # Transaction distribution (Count)
system.membus.pktCount_system.cpu.l2cache.mem_side_port::system.mem_ctrl.port        14068                       # Packet count per connected requestor and responder (Count)
system.membus.pktCount_system.cpu.l2cache.mem_side_port::total        14068                       # Packet count per connected requestor and responder (Count)
system.membus.pktCount::total                   14068                       # Packet count per connected requestor and responder (Count)
system.membus.pktSize_system.cpu.l2cache.mem_side_port::system.mem_ctrl.port       448512                       # Cumulative packet size per connected requestor and responder (Byte)
system.membus.pktSize_system.cpu.l2cache.mem_side_port::total       448512                       # Cumulative packet size per connected requestor and responder (Byte)
system.membus.pktSize::total                   448512                       # Cumulative packet size per connected requestor and responder (Byte)
system.membus.snoops                                0                       # Total snoops (Count)
system.membus.snoopTraffic                          0                       # Total snoop traffic (Byte)
system.membus.snoopFanout::samples               6966                       # Request fanout histogram (Count)
system.membus.snoopFanout::mean                     0                       # Request fanout histogram (Count)
system.membus.snoopFanout::stdev                    0                       # Request fanout histogram (Count)
system.membus.snoopFanout::underflows               0      0.00%      0.00% # Request fanout histogram (Count)
system.membus.snoopFanout::0                     6966    100.00%    100.00% # Request fanout histogram (Count)
system.membus.snoopFanout::1                        0      0.00%    100.00% # Request fanout histogram (Count)
system.membus.snoopFanout::overflows                0      0.00%    100.00% # Request fanout histogram (Count)
system.membus.snoopFanout::min_value                0                       # Request fanout histogram (Count)
system.membus.snoopFanout::max_value                0                       # Request fanout histogram (Count)
system.membus.snoopFanout::total                 6966                       # Request fanout histogram (Count)
system.membus.power_state.pwrStateResidencyTicks::UNDEFINED   5528696000                       # Cumulative time (in ticks) in various power states (Tick)
system.membus.reqLayer2.occupancy             3635000                       # Layer occupancy (ticks) (Tick)
system.membus.reqLayer2.utilization               0.0                       # Layer utilization (Ratio)
system.membus.respLayer0.occupancy           18662750                       # Layer occupancy (ticks) (Tick)
system.membus.respLayer0.utilization              0.0                       # Layer utilization (Ratio)
system.membus.snoop_filter.totRequests           7102                       # Total number of requests made to the snoop filter. (Count)
system.membus.snoop_filter.hitSingleRequests          136                       # Number of requests hitting in the snoop filter with a single holder of the requested data. (Count)
system.membus.snoop_filter.hitMultiRequests            0                       # Number of requests hitting in the snoop filter with multiple (>1) holders of the requested data. (Count)
system.membus.snoop_filter.totSnoops                0                       # Total number of snoops made to the snoop filter. (Count)
system.membus.snoop_filter.hitSingleSnoops            0                       # Number of snoops hitting in the snoop filter with a single holder of the requested data. (Count)
system.membus.snoop_filter.hitMultiSnoops            0                       # Number of snoops hitting in the snoop filter with multiple (>1) holders of the requested data. (Count)
system.workload.inst.arm                            0                       # number of arm instructions executed (Count)
system.workload.inst.quiesce                        0                       # number of quiesce instructions executed (Count)

---------- End Simulation Statistics   ----------
