
---------- Begin Simulation Statistics ----------
simSeconds                                   0.005376                       # Number of seconds simulated (Second)
simTicks                                   5376299500                       # Number of ticks simulated (Tick)
finalTick                                  5376299500                       # Number of ticks from beginning of simulation (restored from checkpoints and never reset) (Tick)
simFreq                                  1000000000000                       # The number of ticks per simulated second ((Tick/Second))
hostSeconds                                    134.90                       # Real time elapsed on the host (Second)
hostTickRate                                 39853844                       # The number of ticks simulated per host second (ticks/s) ((Tick/Second))
hostMemory                                    1198756                       # Number of bytes of host memory used (Byte)
simInsts                                     19928450                       # Number of instructions simulated (Count)
simOps                                       35336477                       # Number of ops (including micro ops) simulated (Count)
hostInstRate                                   147727                       # Simulator instruction rate (inst/s) ((Count/Second))
hostOpRate                                     261945                       # Simulator op (including micro ops) rate (op/s) ((Count/Second))
system.clk_domain.clock                           500                       # Clock period in ticks (Tick)
system.clk_domain.voltage_domain.voltage            1                       # Voltage in Volts (Volt)
system.cpu.numCycles                         10752600                       # Number of cpu cycles simulated (Cycle)
system.cpu.numWorkItemsStarted                      0                       # Number of work items this cpu started (Count)
system.cpu.numWorkItemsCompleted                    0                       # Number of work items this cpu completed (Count)
system.cpu.instsAdded                        35863140                       # Number of instructions added to the IQ (excludes non-spec) (Count)
system.cpu.nonSpecInstsAdded                       37                       # Number of non-speculative instructions added to the IQ (Count)
system.cpu.instsIssued                       35720750                       # Number of instructions issued (Count)
system.cpu.squashedInstsIssued                   1341                       # Number of squashed instructions issued (Count)
system.cpu.squashedInstsExamined               526694                       # Number of squashed instructions iterated over during squash; mainly for profiling (Count)
system.cpu.squashedOperandsExamined            611074                       # Number of squashed operands that are examined and possibly removed from graph (Count)
system.cpu.squashedNonSpecRemoved                  19                       # Number of squashed non-spec instructions that were removed (Count)
system.cpu.numIssuedDist::samples            10649102                       # Number of insts issued each cycle (Count)
system.cpu.numIssuedDist::mean               3.354344                       # Number of insts issued each cycle (Count)
system.cpu.numIssuedDist::stdev              1.943361                       # Number of insts issued each cycle (Count)
system.cpu.numIssuedDist::underflows                0      0.00%      0.00% # Number of insts issued each cycle (Count)
system.cpu.numIssuedDist::0                    795357      7.47%      7.47% # Number of insts issued each cycle (Count)
system.cpu.numIssuedDist::1                   1227538     11.53%     19.00% # Number of insts issued each cycle (Count)
system.cpu.numIssuedDist::2                    918234      8.62%     27.62% # Number of insts issued each cycle (Count)
system.cpu.numIssuedDist::3                   3404527     31.97%     59.59% # Number of insts issued each cycle (Count)
system.cpu.numIssuedDist::4                   1729225     16.24%     75.83% # Number of insts issued each cycle (Count)
system.cpu.numIssuedDist::5                   1103796     10.37%     86.19% # Number of insts issued each cycle (Count)
system.cpu.numIssuedDist::6                    734230      6.89%     93.09% # Number of insts issued each cycle (Count)
system.cpu.numIssuedDist::7                    287657      2.70%     95.79% # Number of insts issued each cycle (Count)
system.cpu.numIssuedDist::8                    448538      4.21%    100.00% # Number of insts issued each cycle (Count)
system.cpu.numIssuedDist::overflows                 0      0.00%    100.00% # Number of insts issued each cycle (Count)
system.cpu.numIssuedDist::min_value                 0                       # Number of insts issued each cycle (Count)
system.cpu.numIssuedDist::max_value                 8                       # Number of insts issued each cycle (Count)
system.cpu.numIssuedDist::total              10649102                       # Number of insts issued each cycle (Count)
system.cpu.statFuBusy::No_OpClass                   0      0.00%      0.00% # attempts to use FU when none available (Count)
system.cpu.statFuBusy::IntAlu                  574981     95.20%     95.20% # attempts to use FU when none available (Count)
system.cpu.statFuBusy::IntMult                      0      0.00%     95.20% # attempts to use FU when none available (Count)
system.cpu.statFuBusy::IntDiv                       0      0.00%     95.20% # attempts to use FU when none available (Count)
system.cpu.statFuBusy::FloatAdd                     0      0.00%     95.20% # attempts to use FU when none available (Count)
system.cpu.statFuBusy::FloatCmp                     0      0.00%     95.20% # attempts to use FU when none available (Count)
system.cpu.statFuBusy::FloatCvt                     0      0.00%     95.20% # attempts to use FU when none available (Count)
system.cpu.statFuBusy::FloatMult                    0      0.00%     95.20% # attempts to use FU when none available (Count)
system.cpu.statFuBusy::FloatMultAcc                 0      0.00%     95.20% # attempts to use FU when none available (Count)
system.cpu.statFuBusy::FloatDiv                     0      0.00%     95.20% # attempts to use FU when none available (Count)
system.cpu.statFuBusy::FloatMisc                    0      0.00%     95.20% # attempts to use FU when none available (Count)
system.cpu.statFuBusy::FloatSqrt                    0      0.00%     95.20% # attempts to use FU when none available (Count)
system.cpu.statFuBusy::SimdAdd                      0      0.00%     95.20% # attempts to use FU when none available (Count)
system.cpu.statFuBusy::SimdAddAcc                   0      0.00%     95.20% # attempts to use FU when none available (Count)
system.cpu.statFuBusy::SimdAlu                   1019      0.17%     95.37% # attempts to use FU when none available (Count)
system.cpu.statFuBusy::SimdCmp                      0      0.00%     95.37% # attempts to use FU when none available (Count)
system.cpu.statFuBusy::SimdCvt                     32      0.01%     95.38% # attempts to use FU when none available (Count)
system.cpu.statFuBusy::SimdMisc                     4      0.00%     95.38% # attempts to use FU when none available (Count)
system.cpu.statFuBusy::SimdMult                     0      0.00%     95.38% # attempts to use FU when none available (Count)
system.cpu.statFuBusy::SimdMultAcc                  0      0.00%     95.38% # attempts to use FU when none available (Count)
system.cpu.statFuBusy::SimdShift                    0      0.00%     95.38% # attempts to use FU when none available (Count)
system.cpu.statFuBusy::SimdShiftAcc                 0      0.00%     95.38% # attempts to use FU when none available (Count)
system.cpu.statFuBusy::SimdDiv                      0      0.00%     95.38% # attempts to use FU when none available (Count)
system.cpu.statFuBusy::SimdSqrt                     0      0.00%     95.38% # attempts to use FU when none available (Count)
system.cpu.statFuBusy::SimdFloatAdd                 0      0.00%     95.38% # attempts to use FU when none available (Count)
system.cpu.statFuBusy::SimdFloatAlu                 0      0.00%     95.38% # attempts to use FU when none available (Count)
system.cpu.statFuBusy::SimdFloatCmp                 0      0.00%     95.38% # attempts to use FU when none available (Count)
system.cpu.statFuBusy::SimdFloatCvt                 0      0.00%     95.38% # attempts to use FU when none available (Count)
system.cpu.statFuBusy::SimdFloatDiv                 0      0.00%     95.38% # attempts to use FU when none available (Count)
system.cpu.statFuBusy::SimdFloatMisc                0      0.00%     95.38% # attempts to use FU when none available (Count)
system.cpu.statFuBusy::SimdFloatMult                0      0.00%     95.38% # attempts to use FU when none available (Count)
system.cpu.statFuBusy::SimdFloatMultAcc             0      0.00%     95.38% # attempts to use FU when none available (Count)
system.cpu.statFuBusy::SimdFloatSqrt                0      0.00%     95.38% # attempts to use FU when none available (Count)
system.cpu.statFuBusy::SimdReduceAdd                0      0.00%     95.38% # attempts to use FU when none available (Count)
system.cpu.statFuBusy::SimdReduceAlu                0      0.00%     95.38% # attempts to use FU when none available (Count)
system.cpu.statFuBusy::SimdReduceCmp                0      0.00%     95.38% # attempts to use FU when none available (Count)
system.cpu.statFuBusy::SimdFloatReduceAdd            0      0.00%     95.38% # attempts to use FU when none available (Count)
system.cpu.statFuBusy::SimdFloatReduceCmp            0      0.00%     95.38% # attempts to use FU when none available (Count)
system.cpu.statFuBusy::SimdAes                      0      0.00%     95.38% # attempts to use FU when none available (Count)
system.cpu.statFuBusy::SimdAesMix                   0      0.00%     95.38% # attempts to use FU when none available (Count)
system.cpu.statFuBusy::SimdSha1Hash                 0      0.00%     95.38% # attempts to use FU when none available (Count)
system.cpu.statFuBusy::SimdSha1Hash2                0      0.00%     95.38% # attempts to use FU when none available (Count)
system.cpu.statFuBusy::SimdSha256Hash               0      0.00%     95.38% # attempts to use FU when none available (Count)
system.cpu.statFuBusy::SimdSha256Hash2              0      0.00%     95.38% # attempts to use FU when none available (Count)
system.cpu.statFuBusy::SimdShaSigma2                0      0.00%     95.38% # attempts to use FU when none available (Count)
system.cpu.statFuBusy::SimdShaSigma3                0      0.00%     95.38% # attempts to use FU when none available (Count)
system.cpu.statFuBusy::SimdPredAlu                  0      0.00%     95.38% # attempts to use FU when none available (Count)
system.cpu.statFuBusy::MemRead                  18613      3.08%     98.46% # attempts to use FU when none available (Count)
system.cpu.statFuBusy::MemWrite                  2425      0.40%     98.86% # attempts to use FU when none available (Count)
system.cpu.statFuBusy::FloatMemRead              1974      0.33%     99.19% # attempts to use FU when none available (Count)
system.cpu.statFuBusy::FloatMemWrite             4907      0.81%    100.00% # attempts to use FU when none available (Count)
system.cpu.statFuBusy::IprAccess                    0      0.00%    100.00% # attempts to use FU when none available (Count)
system.cpu.statFuBusy::InstPrefetch                 0      0.00%    100.00% # attempts to use FU when none available (Count)
system.cpu.statIssuedInstType_0::No_OpClass       594135      1.66%      1.66% # Number of instructions issued per FU type, per thread (Count)
system.cpu.statIssuedInstType_0::IntAlu      20324538     56.90%     58.56% # Number of instructions issued per FU type, per thread (Count)
system.cpu.statIssuedInstType_0::IntMult       517544      1.45%     60.01% # Number of instructions issued per FU type, per thread (Count)
system.cpu.statIssuedInstType_0::IntDiv         54226      0.15%     60.16% # Number of instructions issued per FU type, per thread (Count)
system.cpu.statIssuedInstType_0::FloatAdd      1517346      4.25%     64.41% # Number of instructions issued per FU type, per thread (Count)
system.cpu.statIssuedInstType_0::FloatCmp            0      0.00%     64.41% # Number of instructions issued per FU type, per thread (Count)
system.cpu.statIssuedInstType_0::FloatCvt           32      0.00%     64.41% # Number of instructions issued per FU type, per thread (Count)
system.cpu.statIssuedInstType_0::FloatMult            0      0.00%     64.41% # Number of instructions issued per FU type, per thread (Count)
system.cpu.statIssuedInstType_0::FloatMultAcc            0      0.00%     64.41% # Number of instructions issued per FU type, per thread (Count)
system.cpu.statIssuedInstType_0::FloatDiv            0      0.00%     64.41% # Number of instructions issued per FU type, per thread (Count)
system.cpu.statIssuedInstType_0::FloatMisc            0      0.00%     64.41% # Number of instructions issued per FU type, per thread (Count)
system.cpu.statIssuedInstType_0::FloatSqrt            0      0.00%     64.41% # Number of instructions issued per FU type, per thread (Count)
system.cpu.statIssuedInstType_0::SimdAdd          464      0.00%     64.41% # Number of instructions issued per FU type, per thread (Count)
system.cpu.statIssuedInstType_0::SimdAddAcc            0      0.00%     64.41% # Number of instructions issued per FU type, per thread (Count)
system.cpu.statIssuedInstType_0::SimdAlu        19184      0.05%     64.47% # Number of instructions issued per FU type, per thread (Count)
system.cpu.statIssuedInstType_0::SimdCmp            8      0.00%     64.47% # Number of instructions issued per FU type, per thread (Count)
system.cpu.statIssuedInstType_0::SimdCvt        11136      0.03%     64.50% # Number of instructions issued per FU type, per thread (Count)
system.cpu.statIssuedInstType_0::SimdMisc        25010      0.07%     64.57% # Number of instructions issued per FU type, per thread (Count)
system.cpu.statIssuedInstType_0::SimdMult            0      0.00%     64.57% # Number of instructions issued per FU type, per thread (Count)
system.cpu.statIssuedInstType_0::SimdMultAcc            0      0.00%     64.57% # Number of instructions issued per FU type, per thread (Count)
system.cpu.statIssuedInstType_0::SimdShift          334      0.00%     64.57% # Number of instructions issued per FU type, per thread (Count)
system.cpu.statIssuedInstType_0::SimdShiftAcc            0      0.00%     64.57% # Number of instructions issued per FU type, per thread (Count)
system.cpu.statIssuedInstType_0::SimdDiv            0      0.00%     64.57% # Number of instructions issued per FU type, per thread (Count)
system.cpu.statIssuedInstType_0::SimdSqrt            0      0.00%     64.57% # Number of instructions issued per FU type, per thread (Count)
system.cpu.statIssuedInstType_0::SimdFloatAdd            0      0.00%     64.57% # Number of instructions issued per FU type, per thread (Count)
system.cpu.statIssuedInstType_0::SimdFloatAlu            0      0.00%     64.57% # Number of instructions issued per FU type, per thread (Count)
system.cpu.statIssuedInstType_0::SimdFloatCmp            0      0.00%     64.57% # Number of instructions issued per FU type, per thread (Count)
system.cpu.statIssuedInstType_0::SimdFloatCvt       508519      1.42%     65.99% # Number of instructions issued per FU type, per thread (Count)
system.cpu.statIssuedInstType_0::SimdFloatDiv            0      0.00%     65.99% # Number of instructions issued per FU type, per thread (Count)
system.cpu.statIssuedInstType_0::SimdFloatMisc            0      0.00%     65.99% # Number of instructions issued per FU type, per thread (Count)
system.cpu.statIssuedInstType_0::SimdFloatMult            0      0.00%     65.99% # Number of instructions issued per FU type, per thread (Count)
system.cpu.statIssuedInstType_0::SimdFloatMultAcc            0      0.00%     65.99% # Number of instructions issued per FU type, per thread (Count)
system.cpu.statIssuedInstType_0::SimdFloatSqrt            0      0.00%     65.99% # Number of instructions issued per FU type, per thread (Count)
system.cpu.statIssuedInstType_0::SimdReduceAdd            0      0.00%     65.99% # Number of instructions issued per FU type, per thread (Count)
system.cpu.statIssuedInstType_0::SimdReduceAlu            0      0.00%     65.99% # Number of instructions issued per FU type, per thread (Count)
system.cpu.statIssuedInstType_0::SimdReduceCmp            0      0.00%     65.99% # Number of instructions issued per FU type, per thread (Count)
system.cpu.statIssuedInstType_0::SimdFloatReduceAdd            0      0.00%     65.99% # Number of instructions issued per FU type, per thread (Count)
system.cpu.statIssuedInstType_0::SimdFloatReduceCmp            0      0.00%     65.99% # Number of instructions issued per FU type, per thread (Count)
system.cpu.statIssuedInstType_0::SimdAes            0      0.00%     65.99% # Number of instructions issued per FU type, per thread (Count)
system.cpu.statIssuedInstType_0::SimdAesMix            0      0.00%     65.99% # Number of instructions issued per FU type, per thread (Count)
system.cpu.statIssuedInstType_0::SimdSha1Hash            0      0.00%     65.99% # Number of instructions issued per FU type, per thread (Count)
system.cpu.statIssuedInstType_0::SimdSha1Hash2            0      0.00%     65.99% # Number of instructions issued per FU type, per thread (Count)
system.cpu.statIssuedInstType_0::SimdSha256Hash            0      0.00%     65.99% # Number of instructions issued per FU type, per thread (Count)
system.cpu.statIssuedInstType_0::SimdSha256Hash2            0      0.00%     65.99% # Number of instructions issued per FU type, per thread (Count)
system.cpu.statIssuedInstType_0::SimdShaSigma2            0      0.00%     65.99% # Number of instructions issued per FU type, per thread (Count)
system.cpu.statIssuedInstType_0::SimdShaSigma3            0      0.00%     65.99% # Number of instructions issued per FU type, per thread (Count)
system.cpu.statIssuedInstType_0::SimdPredAlu            0      0.00%     65.99% # Number of instructions issued per FU type, per thread (Count)
system.cpu.statIssuedInstType_0::MemRead      5993747     16.78%     82.77% # Number of instructions issued per FU type, per thread (Count)
system.cpu.statIssuedInstType_0::MemWrite      3074811      8.61%     91.38% # Number of instructions issued per FU type, per thread (Count)
system.cpu.statIssuedInstType_0::FloatMemRead      2047186      5.73%     97.11% # Number of instructions issued per FU type, per thread (Count)
system.cpu.statIssuedInstType_0::FloatMemWrite      1032530      2.89%    100.00% # Number of instructions issued per FU type, per thread (Count)
system.cpu.statIssuedInstType_0::IprAccess            0      0.00%    100.00% # Number of instructions issued per FU type, per thread (Count)
system.cpu.statIssuedInstType_0::InstPrefetch            0      0.00%    100.00% # Number of instructions issued per FU type, per thread (Count)
system.cpu.statIssuedInstType_0::total       35720750                       # Number of instructions issued per FU type, per thread (Count)
system.cpu.issueRate                         3.322057                       # Inst issue rate ((Count/Cycle))
system.cpu.fuBusy                              603955                       # FU busy when requested (Count)
system.cpu.fuBusyRate                        0.016908                       # FU busy rate (busy events/executed inst) ((Count/Count))
system.cpu.intInstQueueReads                 72347761                       # Number of integer instruction queue reads (Count)
system.cpu.intInstQueueWrites                31203775                       # Number of integer instruction queue writes (Count)
system.cpu.intInstQueueWakeupAccesses        30502648                       # Number of integer instruction queue wakeup accesses (Count)
system.cpu.fpInstQueueReads                  10348137                       # Number of floating instruction queue reads (Count)
system.cpu.fpInstQueueWrites                  5186606                       # Number of floating instruction queue writes (Count)
system.cpu.fpInstQueueWakeupAccesses          5160457                       # Number of floating instruction queue wakeup accesses (Count)
system.cpu.vecInstQueueReads                        0                       # Number of vector instruction queue reads (Count)
system.cpu.vecInstQueueWrites                       0                       # Number of vector instruction queue writes (Count)
system.cpu.vecInstQueueWakeupAccesses               0                       # Number of vector instruction queue wakeup accesses (Count)
system.cpu.intAluAccesses                    30552547                       # Number of integer alu accesses (Count)
system.cpu.fpAluAccesses                      5178023                       # Number of floating point alu accesses (Count)
system.cpu.vecAluAccesses                           0                       # Number of vector alu accesses (Count)
system.cpu.numInsts                          35688288                       # Number of executed instructions (Count)
system.cpu.numLoadInsts                       8036509                       # Number of load instructions executed (Count)
system.cpu.numSquashedInsts                     32462                       # Number of squashed instructions skipped in execute (Count)
system.cpu.numSwp                                   0                       # Number of swp insts executed (Count)
system.cpu.numNop                                   0                       # Number of nop insts executed (Count)
system.cpu.numRefs                           12139938                       # Number of memory reference insts executed (Count)
system.cpu.numBranches                        3313204                       # Number of branches executed (Count)
system.cpu.numStoreInsts                      4103429                       # Number of stores executed (Count)
system.cpu.numRate                           3.319038                       # Inst execution rate ((Count/Cycle))
system.cpu.timesIdled                             928                       # Number of times that the entire CPU went into an idle state and unscheduled itself (Count)
system.cpu.idleCycles                          103498                       # Total number of cycles that the CPU has spent unscheduled due to idling (Cycle)
system.cpu.committedInsts                    19928450                       # Number of Instructions Simulated (Count)
system.cpu.committedOps                      35336477                       # Number of Ops (including micro ops) Simulated (Count)
system.cpu.cpi                               0.539560                       # CPI: Cycles Per Instruction ((Cycle/Count))
system.cpu.totalCpi                          0.539560                       # CPI: Total CPI of All Threads ((Cycle/Count))
system.cpu.ipc                               1.853361                       # IPC: Instructions Per Cycle ((Count/Cycle))
system.cpu.totalIpc                          1.853361                       # IPC: Total IPC of All Threads ((Count/Cycle))
system.cpu.intRegfileReads                   55760025                       # Number of integer regfile reads (Count)
system.cpu.intRegfileWrites                  24158630                       # Number of integer regfile writes (Count)
system.cpu.fpRegfileReads                     2181096                       # Number of floating regfile reads (Count)
system.cpu.fpRegfileWrites                    3611037                       # Number of floating regfile writes (Count)
system.cpu.ccRegfileReads                    10404567                       # number of cc regfile reads (Count)
system.cpu.ccRegfileWrites                    5890660                       # number of cc regfile writes (Count)
system.cpu.miscRegfileReads                  18230768                       # number of misc regfile reads (Count)
system.cpu.miscRegfileWrites                       18                       # number of misc regfile writes (Count)
system.cpu.MemDepUnit__0.insertedLoads        8057616                       # Number of loads inserted to the mem dependence unit. (Count)
system.cpu.MemDepUnit__0.insertedStores       4113064                       # Number of stores inserted to the mem dependence unit. (Count)
system.cpu.MemDepUnit__0.conflictingLoads      2573661                       # Number of conflicting loads. (Count)
system.cpu.MemDepUnit__0.conflictingStores       585728                       # Number of conflicting stores. (Count)
system.cpu.MemDepUnit__1.insertedLoads              0                       # Number of loads inserted to the mem dependence unit. (Count)
system.cpu.MemDepUnit__1.insertedStores             0                       # Number of stores inserted to the mem dependence unit. (Count)
system.cpu.MemDepUnit__1.conflictingLoads            0                       # Number of conflicting loads. (Count)
system.cpu.MemDepUnit__1.conflictingStores            0                       # Number of conflicting stores. (Count)
system.cpu.MemDepUnit__2.insertedLoads              0                       # Number of loads inserted to the mem dependence unit. (Count)
system.cpu.MemDepUnit__2.insertedStores             0                       # Number of stores inserted to the mem dependence unit. (Count)
system.cpu.MemDepUnit__2.conflictingLoads            0                       # Number of conflicting loads. (Count)
system.cpu.MemDepUnit__2.conflictingStores            0                       # Number of conflicting stores. (Count)
system.cpu.MemDepUnit__3.insertedLoads              0                       # Number of loads inserted to the mem dependence unit. (Count)
system.cpu.MemDepUnit__3.insertedStores             0                       # Number of stores inserted to the mem dependence unit. (Count)
system.cpu.MemDepUnit__3.conflictingLoads            0                       # Number of conflicting loads. (Count)
system.cpu.MemDepUnit__3.conflictingStores            0                       # Number of conflicting stores. (Count)
system.cpu.branchPred.lookups                 3381484                       # Number of BP lookups (Count)
system.cpu.branchPred.condPredicted           1646215                       # Number of conditional branches predicted (Count)
system.cpu.branchPred.condIncorrect             14900                       # Number of conditional branches incorrect (Count)
system.cpu.branchPred.BTBLookups              1382121                       # Number of BTB lookups (Count)
system.cpu.branchPred.BTBHits                 1377937                       # Number of BTB hits (Count)
system.cpu.branchPred.BTBHitRatio            0.996973                       # BTB Hit Ratio (Ratio)
system.cpu.branchPred.RASUsed                  572632                       # Number of times the RAS was used to get a target. (Count)
system.cpu.branchPred.RASIncorrect                992                       # Number of incorrect RAS predictions. (Count)
system.cpu.branchPred.indirectLookups          531249                       # Number of indirect predictor lookups. (Count)
system.cpu.branchPred.indirectHits             529755                       # Number of indirect target hits. (Count)
system.cpu.branchPred.indirectMisses             1494                       # Number of indirect misses. (Count)
system.cpu.branchPred.indirectMispredicted          313                       # Number of mispredicted indirect branches. (Count)
system.cpu.commit.commitSquashedInsts          494515                       # The number of squashed insts skipped by commit (Count)
system.cpu.commit.commitNonSpecStalls              18                       # The number of times commit has been forced to stall to communicate backwards (Count)
system.cpu.commit.branchMispredicts             13667                       # The number of times a branch was mispredicted (Count)
system.cpu.commit.numCommittedDist::samples     10577497                       # Number of insts commited each cycle (Count)
system.cpu.commit.numCommittedDist::mean     3.340722                       # Number of insts commited each cycle (Count)
system.cpu.commit.numCommittedDist::stdev     3.113927                       # Number of insts commited each cycle (Count)
system.cpu.commit.numCommittedDist::underflows            0      0.00%      0.00% # Number of insts commited each cycle (Count)
system.cpu.commit.numCommittedDist::0         2852257     26.97%     26.97% # Number of insts commited each cycle (Count)
system.cpu.commit.numCommittedDist::1          804170      7.60%     34.57% # Number of insts commited each cycle (Count)
system.cpu.commit.numCommittedDist::2         1876197     17.74%     52.31% # Number of insts commited each cycle (Count)
system.cpu.commit.numCommittedDist::3         1257653     11.89%     64.20% # Number of insts commited each cycle (Count)
system.cpu.commit.numCommittedDist::4          603976      5.71%     69.91% # Number of insts commited each cycle (Count)
system.cpu.commit.numCommittedDist::5           98011      0.93%     70.83% # Number of insts commited each cycle (Count)
system.cpu.commit.numCommittedDist::6           65444      0.62%     71.45% # Number of insts commited each cycle (Count)
system.cpu.commit.numCommittedDist::7          449981      4.25%     75.70% # Number of insts commited each cycle (Count)
system.cpu.commit.numCommittedDist::8         2569808     24.30%    100.00% # Number of insts commited each cycle (Count)
system.cpu.commit.numCommittedDist::overflows            0      0.00%    100.00% # Number of insts commited each cycle (Count)
system.cpu.commit.numCommittedDist::min_value            0                       # Number of insts commited each cycle (Count)
system.cpu.commit.numCommittedDist::max_value            8                       # Number of insts commited each cycle (Count)
system.cpu.commit.numCommittedDist::total     10577497                       # Number of insts commited each cycle (Count)
system.cpu.commit.instsCommitted             19928450                       # Number of instructions committed (Count)
system.cpu.commit.opsCommitted               35336477                       # Number of ops (including micro ops) committed (Count)
system.cpu.commit.memRefs                    12069539                       # Number of memory references committed (Count)
system.cpu.commit.loads                       7978510                       # Number of loads committed (Count)
system.cpu.commit.amos                              0                       # Number of atomic instructions committed (Count)
system.cpu.commit.membars                           0                       # Number of memory barriers committed (Count)
system.cpu.commit.branches                    3283692                       # Number of branches committed (Count)
system.cpu.commit.vectorInstructions                0                       # Number of committed Vector instructions. (Count)
system.cpu.commit.floating                    5154398                       # Number of committed floating point instructions. (Count)
system.cpu.commit.integer                    32657360                       # Number of committed integer instructions. (Count)
system.cpu.commit.functionCalls                563369                       # Number of function calls committed. (Count)
system.cpu.commit.committedInstType_0::No_OpClass       589130      1.67%      1.67% # Class of committed instruction (Count)
system.cpu.commit.committedInstType_0::IntAlu     20030633     56.69%     58.35% # Class of committed instruction (Count)
system.cpu.commit.committedInstType_0::IntMult       516165      1.46%     59.81% # Class of committed instruction (Count)
system.cpu.commit.committedInstType_0::IntDiv        53994      0.15%     59.97% # Class of committed instruction (Count)
system.cpu.commit.committedInstType_0::FloatAdd      1513865      4.28%     64.25% # Class of committed instruction (Count)
system.cpu.commit.committedInstType_0::FloatCmp            0      0.00%     64.25% # Class of committed instruction (Count)
system.cpu.commit.committedInstType_0::FloatCvt           32      0.00%     64.25% # Class of committed instruction (Count)
system.cpu.commit.committedInstType_0::FloatMult            0      0.00%     64.25% # Class of committed instruction (Count)
system.cpu.commit.committedInstType_0::FloatMultAcc            0      0.00%     64.25% # Class of committed instruction (Count)
system.cpu.commit.committedInstType_0::FloatDiv            0      0.00%     64.25% # Class of committed instruction (Count)
system.cpu.commit.committedInstType_0::FloatMisc            0      0.00%     64.25% # Class of committed instruction (Count)
system.cpu.commit.committedInstType_0::FloatSqrt            0      0.00%     64.25% # Class of committed instruction (Count)
system.cpu.commit.committedInstType_0::SimdAdd          326      0.00%     64.25% # Class of committed instruction (Count)
system.cpu.commit.committedInstType_0::SimdAddAcc            0      0.00%     64.25% # Class of committed instruction (Count)
system.cpu.commit.committedInstType_0::SimdAlu        18662      0.05%     64.30% # Class of committed instruction (Count)
system.cpu.commit.committedInstType_0::SimdCmp            6      0.00%     64.30% # Class of committed instruction (Count)
system.cpu.commit.committedInstType_0::SimdCvt        10720      0.03%     64.33% # Class of committed instruction (Count)
system.cpu.commit.committedInstType_0::SimdMisc        24821      0.07%     64.40% # Class of committed instruction (Count)
system.cpu.commit.committedInstType_0::SimdMult            0      0.00%     64.40% # Class of committed instruction (Count)
system.cpu.commit.committedInstType_0::SimdMultAcc            0      0.00%     64.40% # Class of committed instruction (Count)
system.cpu.commit.committedInstType_0::SimdShift           90      0.00%     64.40% # Class of committed instruction (Count)
system.cpu.commit.committedInstType_0::SimdShiftAcc            0      0.00%     64.40% # Class of committed instruction (Count)
system.cpu.commit.committedInstType_0::SimdDiv            0      0.00%     64.40% # Class of committed instruction (Count)
system.cpu.commit.committedInstType_0::SimdSqrt            0      0.00%     64.40% # Class of committed instruction (Count)
system.cpu.commit.committedInstType_0::SimdFloatAdd            0      0.00%     64.40% # Class of committed instruction (Count)
system.cpu.commit.committedInstType_0::SimdFloatAlu            0      0.00%     64.40% # Class of committed instruction (Count)
system.cpu.commit.committedInstType_0::SimdFloatCmp            0      0.00%     64.40% # Class of committed instruction (Count)
system.cpu.commit.committedInstType_0::SimdFloatCvt       508494      1.44%     65.84% # Class of committed instruction (Count)
system.cpu.commit.committedInstType_0::SimdFloatDiv            0      0.00%     65.84% # Class of committed instruction (Count)
system.cpu.commit.committedInstType_0::SimdFloatMisc            0      0.00%     65.84% # Class of committed instruction (Count)
system.cpu.commit.committedInstType_0::SimdFloatMult            0      0.00%     65.84% # Class of committed instruction (Count)
system.cpu.commit.committedInstType_0::SimdFloatMultAcc            0      0.00%     65.84% # Class of committed instruction (Count)
system.cpu.commit.committedInstType_0::SimdFloatSqrt            0      0.00%     65.84% # Class of committed instruction (Count)
system.cpu.commit.committedInstType_0::SimdReduceAdd            0      0.00%     65.84% # Class of committed instruction (Count)
system.cpu.commit.committedInstType_0::SimdReduceAlu            0      0.00%     65.84% # Class of committed instruction (Count)
system.cpu.commit.committedInstType_0::SimdReduceCmp            0      0.00%     65.84% # Class of committed instruction (Count)
system.cpu.commit.committedInstType_0::SimdFloatReduceAdd            0      0.00%     65.84% # Class of committed instruction (Count)
system.cpu.commit.committedInstType_0::SimdFloatReduceCmp            0      0.00%     65.84% # Class of committed instruction (Count)
system.cpu.commit.committedInstType_0::SimdAes            0      0.00%     65.84% # Class of committed instruction (Count)
system.cpu.commit.committedInstType_0::SimdAesMix            0      0.00%     65.84% # Class of committed instruction (Count)
system.cpu.commit.committedInstType_0::SimdSha1Hash            0      0.00%     65.84% # Class of committed instruction (Count)
system.cpu.commit.committedInstType_0::SimdSha1Hash2            0      0.00%     65.84% # Class of committed instruction (Count)
system.cpu.commit.committedInstType_0::SimdSha256Hash            0      0.00%     65.84% # Class of committed instruction (Count)
system.cpu.commit.committedInstType_0::SimdSha256Hash2            0      0.00%     65.84% # Class of committed instruction (Count)
system.cpu.commit.committedInstType_0::SimdShaSigma2            0      0.00%     65.84% # Class of committed instruction (Count)
system.cpu.commit.committedInstType_0::SimdShaSigma3            0      0.00%     65.84% # Class of committed instruction (Count)
system.cpu.commit.committedInstType_0::SimdPredAlu            0      0.00%     65.84% # Class of committed instruction (Count)
system.cpu.commit.committedInstType_0::MemRead      5941599     16.81%     82.66% # Class of committed instruction (Count)
system.cpu.commit.committedInstType_0::MemWrite      3058838      8.66%     91.31% # Class of committed instruction (Count)
system.cpu.commit.committedInstType_0::FloatMemRead      2036911      5.76%     97.08% # Class of committed instruction (Count)
system.cpu.commit.committedInstType_0::FloatMemWrite      1032191      2.92%    100.00% # Class of committed instruction (Count)
system.cpu.commit.committedInstType_0::IprAccess            0      0.00%    100.00% # Class of committed instruction (Count)
system.cpu.commit.committedInstType_0::InstPrefetch            0      0.00%    100.00% # Class of committed instruction (Count)
system.cpu.commit.committedInstType_0::total     35336477                       # Class of committed instruction (Count)
system.cpu.commit.commitEligibleSamples       2569808                       # number cycles where commit BW limit reached (Cycle)
system.cpu.dcache.demandHits::cpu.data        7872445                       # number of demand (read+write) hits (Count)
system.cpu.dcache.demandHits::total           7872445                       # number of demand (read+write) hits (Count)
system.cpu.dcache.overallHits::cpu.data       7872445                       # number of overall hits (Count)
system.cpu.dcache.overallHits::total          7872445                       # number of overall hits (Count)
system.cpu.dcache.demandMisses::cpu.data        29625                       # number of demand (read+write) misses (Count)
system.cpu.dcache.demandMisses::total           29625                       # number of demand (read+write) misses (Count)
system.cpu.dcache.overallMisses::cpu.data        29625                       # number of overall misses (Count)
system.cpu.dcache.overallMisses::total          29625                       # number of overall misses (Count)
system.cpu.dcache.demandMissLatency::cpu.data   1562334499                       # number of demand (read+write) miss ticks (Tick)
system.cpu.dcache.demandMissLatency::total   1562334499                       # number of demand (read+write) miss ticks (Tick)
system.cpu.dcache.overallMissLatency::cpu.data   1562334499                       # number of overall miss ticks (Tick)
system.cpu.dcache.overallMissLatency::total   1562334499                       # number of overall miss ticks (Tick)
system.cpu.dcache.demandAccesses::cpu.data      7902070                       # number of demand (read+write) accesses (Count)
system.cpu.dcache.demandAccesses::total       7902070                       # number of demand (read+write) accesses (Count)
system.cpu.dcache.overallAccesses::cpu.data      7902070                       # number of overall (read+write) accesses (Count)
system.cpu.dcache.overallAccesses::total      7902070                       # number of overall (read+write) accesses (Count)
system.cpu.dcache.demandMissRate::cpu.data     0.003749                       # miss rate for demand accesses (Ratio)
system.cpu.dcache.demandMissRate::total      0.003749                       # miss rate for demand accesses (Ratio)
system.cpu.dcache.overallMissRate::cpu.data     0.003749                       # miss rate for overall accesses (Ratio)
system.cpu.dcache.overallMissRate::total     0.003749                       # miss rate for overall accesses (Ratio)
system.cpu.dcache.demandAvgMissLatency::cpu.data 52737.029502                       # average overall miss latency ((Cycle/Count))
system.cpu.dcache.demandAvgMissLatency::total 52737.029502                       # average overall miss latency ((Cycle/Count))
system.cpu.dcache.overallAvgMissLatency::cpu.data 52737.029502                       # average overall miss latency ((Cycle/Count))
system.cpu.dcache.overallAvgMissLatency::total 52737.029502                       # average overall miss latency ((Cycle/Count))
system.cpu.dcache.blockedCycles::no_mshrs        16868                       # number of cycles access was blocked (Cycle)
system.cpu.dcache.blockedCycles::no_targets            0                       # number of cycles access was blocked (Cycle)
system.cpu.dcache.blockedCauses::no_mshrs          342                       # number of times access was blocked (Count)
system.cpu.dcache.blockedCauses::no_targets            0                       # number of times access was blocked (Count)
system.cpu.dcache.avgBlocked::no_mshrs      49.321637                       # average number of cycles each access was blocked ((Cycle/Count))
system.cpu.dcache.avgBlocked::no_targets          nan                       # average number of cycles each access was blocked ((Cycle/Count))
system.cpu.dcache.writebacks::writebacks         6266                       # number of writebacks (Count)
system.cpu.dcache.writebacks::total              6266                       # number of writebacks (Count)
system.cpu.dcache.demandMshrHits::cpu.data        20629                       # number of demand (read+write) MSHR hits (Count)
system.cpu.dcache.demandMshrHits::total         20629                       # number of demand (read+write) MSHR hits (Count)
system.cpu.dcache.overallMshrHits::cpu.data        20629                       # number of overall MSHR hits (Count)
system.cpu.dcache.overallMshrHits::total        20629                       # number of overall MSHR hits (Count)
system.cpu.dcache.demandMshrMisses::cpu.data         8996                       # number of demand (read+write) MSHR misses (Count)
system.cpu.dcache.demandMshrMisses::total         8996                       # number of demand (read+write) MSHR misses (Count)
system.cpu.dcache.overallMshrMisses::cpu.data         8996                       # number of overall MSHR misses (Count)
system.cpu.dcache.overallMshrMisses::total         8996                       # number of overall MSHR misses (Count)
system.cpu.dcache.demandMshrMissLatency::cpu.data    583527999                       # number of demand (read+write) MSHR miss ticks (Tick)
system.cpu.dcache.demandMshrMissLatency::total    583527999                       # number of demand (read+write) MSHR miss ticks (Tick)
system.cpu.dcache.overallMshrMissLatency::cpu.data    583527999                       # number of overall MSHR miss ticks (Tick)
system.cpu.dcache.overallMshrMissLatency::total    583527999                       # number of overall MSHR miss ticks (Tick)
system.cpu.dcache.demandMshrMissRate::cpu.data     0.001138                       # mshr miss ratio for demand accesses (Ratio)
system.cpu.dcache.demandMshrMissRate::total     0.001138                       # mshr miss ratio for demand accesses (Ratio)
system.cpu.dcache.overallMshrMissRate::cpu.data     0.001138                       # mshr miss ratio for overall accesses (Ratio)
system.cpu.dcache.overallMshrMissRate::total     0.001138                       # mshr miss ratio for overall accesses (Ratio)
system.cpu.dcache.demandAvgMshrMissLatency::cpu.data 64865.273344                       # average overall mshr miss latency ((Cycle/Count))
system.cpu.dcache.demandAvgMshrMissLatency::total 64865.273344                       # average overall mshr miss latency ((Cycle/Count))
system.cpu.dcache.overallAvgMshrMissLatency::cpu.data 64865.273344                       # average overall mshr miss latency ((Cycle/Count))
system.cpu.dcache.overallAvgMshrMissLatency::total 64865.273344                       # average overall mshr miss latency ((Cycle/Count))
system.cpu.dcache.replacements                   8484                       # number of replacements (Count)
system.cpu.dcache.ReadReq.hits::cpu.data      3784105                       # number of ReadReq hits (Count)
system.cpu.dcache.ReadReq.hits::total         3784105                       # number of ReadReq hits (Count)
system.cpu.dcache.ReadReq.misses::cpu.data        26936                       # number of ReadReq misses (Count)
system.cpu.dcache.ReadReq.misses::total         26936                       # number of ReadReq misses (Count)
system.cpu.dcache.ReadReq.missLatency::cpu.data   1425825000                       # number of ReadReq miss ticks (Tick)
system.cpu.dcache.ReadReq.missLatency::total   1425825000                       # number of ReadReq miss ticks (Tick)
system.cpu.dcache.ReadReq.accesses::cpu.data      3811041                       # number of ReadReq accesses(hits+misses) (Count)
system.cpu.dcache.ReadReq.accesses::total      3811041                       # number of ReadReq accesses(hits+misses) (Count)
system.cpu.dcache.ReadReq.missRate::cpu.data     0.007068                       # miss rate for ReadReq accesses (Ratio)
system.cpu.dcache.ReadReq.missRate::total     0.007068                       # miss rate for ReadReq accesses (Ratio)
system.cpu.dcache.ReadReq.avgMissLatency::cpu.data 52933.806059                       # average ReadReq miss latency ((Tick/Count))
system.cpu.dcache.ReadReq.avgMissLatency::total 52933.806059                       # average ReadReq miss latency ((Tick/Count))
system.cpu.dcache.ReadReq.mshrHits::cpu.data        19649                       # number of ReadReq MSHR hits (Count)
system.cpu.dcache.ReadReq.mshrHits::total        19649                       # number of ReadReq MSHR hits (Count)
system.cpu.dcache.ReadReq.mshrMisses::cpu.data         7287                       # number of ReadReq MSHR misses (Count)
system.cpu.dcache.ReadReq.mshrMisses::total         7287                       # number of ReadReq MSHR misses (Count)
system.cpu.dcache.ReadReq.mshrMissLatency::cpu.data    455435500                       # number of ReadReq MSHR miss ticks (Tick)
system.cpu.dcache.ReadReq.mshrMissLatency::total    455435500                       # number of ReadReq MSHR miss ticks (Tick)
system.cpu.dcache.ReadReq.mshrMissRate::cpu.data     0.001912                       # mshr miss rate for ReadReq accesses (Ratio)
system.cpu.dcache.ReadReq.mshrMissRate::total     0.001912                       # mshr miss rate for ReadReq accesses (Ratio)
system.cpu.dcache.ReadReq.avgMshrMissLatency::cpu.data 62499.725539                       # average ReadReq mshr miss latency ((Tick/Count))
system.cpu.dcache.ReadReq.avgMshrMissLatency::total 62499.725539                       # average ReadReq mshr miss latency ((Tick/Count))
system.cpu.dcache.WriteReq.hits::cpu.data      4088340                       # number of WriteReq hits (Count)
system.cpu.dcache.WriteReq.hits::total        4088340                       # number of WriteReq hits (Count)
system.cpu.dcache.WriteReq.misses::cpu.data         2689                       # number of WriteReq misses (Count)
system.cpu.dcache.WriteReq.misses::total         2689                       # number of WriteReq misses (Count)
system.cpu.dcache.WriteReq.missLatency::cpu.data    136509499                       # number of WriteReq miss ticks (Tick)
system.cpu.dcache.WriteReq.missLatency::total    136509499                       # number of WriteReq miss ticks (Tick)
system.cpu.dcache.WriteReq.accesses::cpu.data      4091029                       # number of WriteReq accesses(hits+misses) (Count)
system.cpu.dcache.WriteReq.accesses::total      4091029                       # number of WriteReq accesses(hits+misses) (Count)
system.cpu.dcache.WriteReq.missRate::cpu.data     0.000657                       # miss rate for WriteReq accesses (Ratio)
system.cpu.dcache.WriteReq.missRate::total     0.000657                       # miss rate for WriteReq accesses (Ratio)
system.cpu.dcache.WriteReq.avgMissLatency::cpu.data 50765.897731                       # average WriteReq miss latency ((Tick/Count))
system.cpu.dcache.WriteReq.avgMissLatency::total 50765.897731                       # average WriteReq miss latency ((Tick/Count))
system.cpu.dcache.WriteReq.mshrHits::cpu.data          980                       # number of WriteReq MSHR hits (Count)
system.cpu.dcache.WriteReq.mshrHits::total          980                       # number of WriteReq MSHR hits (Count)
system.cpu.dcache.WriteReq.mshrMisses::cpu.data         1709                       # number of WriteReq MSHR misses (Count)
system.cpu.dcache.WriteReq.mshrMisses::total         1709                       # number of WriteReq MSHR misses (Count)
system.cpu.dcache.WriteReq.mshrMissLatency::cpu.data    128092499                       # number of WriteReq MSHR miss ticks (Tick)
system.cpu.dcache.WriteReq.mshrMissLatency::total    128092499                       # number of WriteReq MSHR miss ticks (Tick)
system.cpu.dcache.WriteReq.mshrMissRate::cpu.data     0.000418                       # mshr miss rate for WriteReq accesses (Ratio)
system.cpu.dcache.WriteReq.mshrMissRate::total     0.000418                       # mshr miss rate for WriteReq accesses (Ratio)
system.cpu.dcache.WriteReq.avgMshrMissLatency::cpu.data 74951.725571                       # average WriteReq mshr miss latency ((Tick/Count))
system.cpu.dcache.WriteReq.avgMshrMissLatency::total 74951.725571                       # average WriteReq mshr miss latency ((Tick/Count))
system.cpu.dcache.power_state.pwrStateResidencyTicks::UNDEFINED   5376299500                       # Cumulative time (in ticks) in various power states (Tick)
system.cpu.dcache.tags.tagsInUse           509.381846                       # Average ticks per tags in use ((Tick/Count))
system.cpu.dcache.tags.totalRefs              7881441                       # Total number of references to valid blocks. (Count)
system.cpu.dcache.tags.sampledRefs               8996                       # Sample count of references to valid blocks. (Count)
system.cpu.dcache.tags.avgRefs             876.105047                       # Average number of references to valid blocks. ((Count/Count))
system.cpu.dcache.tags.warmupTick              168000                       # The tick when the warmup percentage was hit. (Tick)
system.cpu.dcache.tags.occupancies::cpu.data   509.381846                       # Average occupied blocks per tick, per requestor ((Count/Tick))
system.cpu.dcache.tags.avgOccs::cpu.data     0.994886                       # Average percentage of cache occupancy ((Ratio/Tick))
system.cpu.dcache.tags.avgOccs::total        0.994886                       # Average percentage of cache occupancy ((Ratio/Tick))
system.cpu.dcache.tags.occupanciesTaskId::1024          512                       # Occupied blocks per task id (Count)
system.cpu.dcache.tags.ageTaskId_1024::0           47                       # Occupied blocks per task id, per block age (Count)
system.cpu.dcache.tags.ageTaskId_1024::1           13                       # Occupied blocks per task id, per block age (Count)
system.cpu.dcache.tags.ageTaskId_1024::2          452                       # Occupied blocks per task id, per block age (Count)
system.cpu.dcache.tags.ratioOccsTaskId::1024            1                       # Ratio of occupied blocks and all blocks, per task id (Ratio)
system.cpu.dcache.tags.tagAccesses           63225556                       # Number of tag accesses (Count)
system.cpu.dcache.tags.dataAccesses          63225556                       # Number of data accesses (Count)
system.cpu.dcache.tags.power_state.pwrStateResidencyTicks::UNDEFINED   5376299500                       # Cumulative time (in ticks) in various power states (Tick)
system.cpu.decode.idleCycles                  3642407                       # Number of cycles decode is idle (Cycle)
system.cpu.decode.blockedCycles                696130                       # Number of cycles decode is blocked (Cycle)
system.cpu.decode.runCycles                   6209962                       # Number of cycles decode is running (Cycle)
system.cpu.decode.unblockCycles                 85364                       # Number of cycles decode is unblocking (Cycle)
system.cpu.decode.squashCycles                  15239                       # Number of cycles decode is squashing (Cycle)
system.cpu.decode.branchResolved              1374021                       # Number of times decode resolved a branch (Count)
system.cpu.decode.branchMispred                  1615                       # Number of times decode detected a branch misprediction (Count)
system.cpu.decode.decodedInsts               36040490                       # Number of instructions handled by decode (Count)
system.cpu.decode.squashedInsts                  3859                       # Number of squashed instructions handled by decode (Count)
system.cpu.fetch.icacheStallCycles            3710260                       # Number of cycles fetch is stalled on an Icache miss (Cycle)
system.cpu.fetch.insts                       20363501                       # Number of instructions fetch has processed (Count)
system.cpu.fetch.branches                     3381484                       # Number of branches that fetch encountered (Count)
system.cpu.fetch.predictedBranches            2480324                       # Number of branches that fetch has predicted taken (Count)
system.cpu.fetch.cycles                       6918666                       # Number of cycles fetch has run and was not squashing or blocked (Cycle)
system.cpu.fetch.squashCycles                   33688                       # Number of cycles fetch has spent squashing (Cycle)
system.cpu.fetch.miscStallCycles                  401                       # Number of cycles fetch has spent waiting on interrupts, or bad addresses, or out of MSHRs (Cycle)
system.cpu.fetch.pendingTrapStallCycles          2785                       # Number of stall cycles due to pending traps (Cycle)
system.cpu.fetch.pendingQuiesceStallCycles          140                       # Number of stall cycles due to pending quiesce instructions (Cycle)
system.cpu.fetch.icacheWaitRetryStallCycles            6                       # Number of stall cycles due to full MSHR (Cycle)
system.cpu.fetch.cacheLines                   3660001                       # Number of cache lines fetched (Count)
system.cpu.fetch.icacheSquashes                  5329                       # Number of outstanding Icache misses that were squashed (Count)
system.cpu.fetch.nisnDist::samples           10649102                       # Number of instructions fetched each cycle (Total) (Count)
system.cpu.fetch.nisnDist::mean              3.395546                       # Number of instructions fetched each cycle (Total) (Count)
system.cpu.fetch.nisnDist::stdev             3.481283                       # Number of instructions fetched each cycle (Total) (Count)
system.cpu.fetch.nisnDist::underflows               0      0.00%      0.00% # Number of instructions fetched each cycle (Total) (Count)
system.cpu.fetch.nisnDist::0                  4276115     40.15%     40.15% # Number of instructions fetched each cycle (Total) (Count)
system.cpu.fetch.nisnDist::1                  1088205     10.22%     50.37% # Number of instructions fetched each cycle (Total) (Count)
system.cpu.fetch.nisnDist::2                   105314      0.99%     51.36% # Number of instructions fetched each cycle (Total) (Count)
system.cpu.fetch.nisnDist::3                   128717      1.21%     52.57% # Number of instructions fetched each cycle (Total) (Count)
system.cpu.fetch.nisnDist::4                  1095670     10.29%     62.86% # Number of instructions fetched each cycle (Total) (Count)
system.cpu.fetch.nisnDist::5                    96756      0.91%     63.77% # Number of instructions fetched each cycle (Total) (Count)
system.cpu.fetch.nisnDist::6                   584454      5.49%     69.26% # Number of instructions fetched each cycle (Total) (Count)
system.cpu.fetch.nisnDist::7                    89622      0.84%     70.10% # Number of instructions fetched each cycle (Total) (Count)
system.cpu.fetch.nisnDist::8                  3184249     29.90%    100.00% # Number of instructions fetched each cycle (Total) (Count)
system.cpu.fetch.nisnDist::overflows                0      0.00%    100.00% # Number of instructions fetched each cycle (Total) (Count)
system.cpu.fetch.nisnDist::min_value                0                       # Number of instructions fetched each cycle (Total) (Count)
system.cpu.fetch.nisnDist::max_value                8                       # Number of instructions fetched each cycle (Total) (Count)
system.cpu.fetch.nisnDist::total             10649102                       # Number of instructions fetched each cycle (Total) (Count)
system.cpu.fetch.branchRate                  0.314481                       # Number of branch fetches per cycle (Ratio)
system.cpu.fetch.rate                        1.893821                       # Number of inst fetches per cycle ((Count/Cycle))
system.cpu.icache.demandHits::cpu.inst        3658188                       # number of demand (read+write) hits (Count)
system.cpu.icache.demandHits::total           3658188                       # number of demand (read+write) hits (Count)
system.cpu.icache.overallHits::cpu.inst       3658188                       # number of overall hits (Count)
system.cpu.icache.overallHits::total          3658188                       # number of overall hits (Count)
system.cpu.icache.demandMisses::cpu.inst         1813                       # number of demand (read+write) misses (Count)
system.cpu.icache.demandMisses::total            1813                       # number of demand (read+write) misses (Count)
system.cpu.icache.overallMisses::cpu.inst         1813                       # number of overall misses (Count)
system.cpu.icache.overallMisses::total           1813                       # number of overall misses (Count)
system.cpu.icache.demandMissLatency::cpu.inst    130584499                       # number of demand (read+write) miss ticks (Tick)
system.cpu.icache.demandMissLatency::total    130584499                       # number of demand (read+write) miss ticks (Tick)
system.cpu.icache.overallMissLatency::cpu.inst    130584499                       # number of overall miss ticks (Tick)
system.cpu.icache.overallMissLatency::total    130584499                       # number of overall miss ticks (Tick)
system.cpu.icache.demandAccesses::cpu.inst      3660001                       # number of demand (read+write) accesses (Count)
system.cpu.icache.demandAccesses::total       3660001                       # number of demand (read+write) accesses (Count)
system.cpu.icache.overallAccesses::cpu.inst      3660001                       # number of overall (read+write) accesses (Count)
system.cpu.icache.overallAccesses::total      3660001                       # number of overall (read+write) accesses (Count)
system.cpu.icache.demandMissRate::cpu.inst     0.000495                       # miss rate for demand accesses (Ratio)
system.cpu.icache.demandMissRate::total      0.000495                       # miss rate for demand accesses (Ratio)
system.cpu.icache.overallMissRate::cpu.inst     0.000495                       # miss rate for overall accesses (Ratio)
system.cpu.icache.overallMissRate::total     0.000495                       # miss rate for overall accesses (Ratio)
system.cpu.icache.demandAvgMissLatency::cpu.inst 72026.750689                       # average overall miss latency ((Cycle/Count))
system.cpu.icache.demandAvgMissLatency::total 72026.750689                       # average overall miss latency ((Cycle/Count))
system.cpu.icache.overallAvgMissLatency::cpu.inst 72026.750689                       # average overall miss latency ((Cycle/Count))
system.cpu.icache.overallAvgMissLatency::total 72026.750689                       # average overall miss latency ((Cycle/Count))
system.cpu.icache.blockedCycles::no_mshrs          175                       # number of cycles access was blocked (Cycle)
system.cpu.icache.blockedCycles::no_targets            0                       # number of cycles access was blocked (Cycle)
system.cpu.icache.blockedCauses::no_mshrs            4                       # number of times access was blocked (Count)
system.cpu.icache.blockedCauses::no_targets            0                       # number of times access was blocked (Count)
system.cpu.icache.avgBlocked::no_mshrs      43.750000                       # average number of cycles each access was blocked ((Cycle/Count))
system.cpu.icache.avgBlocked::no_targets          nan                       # average number of cycles each access was blocked ((Cycle/Count))
system.cpu.icache.demandMshrHits::cpu.inst          442                       # number of demand (read+write) MSHR hits (Count)
system.cpu.icache.demandMshrHits::total           442                       # number of demand (read+write) MSHR hits (Count)
system.cpu.icache.overallMshrHits::cpu.inst          442                       # number of overall MSHR hits (Count)
system.cpu.icache.overallMshrHits::total          442                       # number of overall MSHR hits (Count)
system.cpu.icache.demandMshrMisses::cpu.inst         1371                       # number of demand (read+write) MSHR misses (Count)
system.cpu.icache.demandMshrMisses::total         1371                       # number of demand (read+write) MSHR misses (Count)
system.cpu.icache.overallMshrMisses::cpu.inst         1371                       # number of overall MSHR misses (Count)
system.cpu.icache.overallMshrMisses::total         1371                       # number of overall MSHR misses (Count)
system.cpu.icache.demandMshrMissLatency::cpu.inst    102787499                       # number of demand (read+write) MSHR miss ticks (Tick)
system.cpu.icache.demandMshrMissLatency::total    102787499                       # number of demand (read+write) MSHR miss ticks (Tick)
system.cpu.icache.overallMshrMissLatency::cpu.inst    102787499                       # number of overall MSHR miss ticks (Tick)
system.cpu.icache.overallMshrMissLatency::total    102787499                       # number of overall MSHR miss ticks (Tick)
system.cpu.icache.demandMshrMissRate::cpu.inst     0.000375                       # mshr miss ratio for demand accesses (Ratio)
system.cpu.icache.demandMshrMissRate::total     0.000375                       # mshr miss ratio for demand accesses (Ratio)
system.cpu.icache.overallMshrMissRate::cpu.inst     0.000375                       # mshr miss ratio for overall accesses (Ratio)
system.cpu.icache.overallMshrMissRate::total     0.000375                       # mshr miss ratio for overall accesses (Ratio)
system.cpu.icache.demandAvgMshrMissLatency::cpu.inst 74972.646973                       # average overall mshr miss latency ((Cycle/Count))
system.cpu.icache.demandAvgMshrMissLatency::total 74972.646973                       # average overall mshr miss latency ((Cycle/Count))
system.cpu.icache.overallAvgMshrMissLatency::cpu.inst 74972.646973                       # average overall mshr miss latency ((Cycle/Count))
system.cpu.icache.overallAvgMshrMissLatency::total 74972.646973                       # average overall mshr miss latency ((Cycle/Count))
system.cpu.icache.replacements                    858                       # number of replacements (Count)
system.cpu.icache.ReadReq.hits::cpu.inst      3658188                       # number of ReadReq hits (Count)
system.cpu.icache.ReadReq.hits::total         3658188                       # number of ReadReq hits (Count)
system.cpu.icache.ReadReq.misses::cpu.inst         1813                       # number of ReadReq misses (Count)
system.cpu.icache.ReadReq.misses::total          1813                       # number of ReadReq misses (Count)
system.cpu.icache.ReadReq.missLatency::cpu.inst    130584499                       # number of ReadReq miss ticks (Tick)
system.cpu.icache.ReadReq.missLatency::total    130584499                       # number of ReadReq miss ticks (Tick)
system.cpu.icache.ReadReq.accesses::cpu.inst      3660001                       # number of ReadReq accesses(hits+misses) (Count)
system.cpu.icache.ReadReq.accesses::total      3660001                       # number of ReadReq accesses(hits+misses) (Count)
system.cpu.icache.ReadReq.missRate::cpu.inst     0.000495                       # miss rate for ReadReq accesses (Ratio)
system.cpu.icache.ReadReq.missRate::total     0.000495                       # miss rate for ReadReq accesses (Ratio)
system.cpu.icache.ReadReq.avgMissLatency::cpu.inst 72026.750689                       # average ReadReq miss latency ((Tick/Count))
system.cpu.icache.ReadReq.avgMissLatency::total 72026.750689                       # average ReadReq miss latency ((Tick/Count))
system.cpu.icache.ReadReq.mshrHits::cpu.inst          442                       # number of ReadReq MSHR hits (Count)
system.cpu.icache.ReadReq.mshrHits::total          442                       # number of ReadReq MSHR hits (Count)
system.cpu.icache.ReadReq.mshrMisses::cpu.inst         1371                       # number of ReadReq MSHR misses (Count)
system.cpu.icache.ReadReq.mshrMisses::total         1371                       # number of ReadReq MSHR misses (Count)
system.cpu.icache.ReadReq.mshrMissLatency::cpu.inst    102787499                       # number of ReadReq MSHR miss ticks (Tick)
system.cpu.icache.ReadReq.mshrMissLatency::total    102787499                       # number of ReadReq MSHR miss ticks (Tick)
system.cpu.icache.ReadReq.mshrMissRate::cpu.inst     0.000375                       # mshr miss rate for ReadReq accesses (Ratio)
system.cpu.icache.ReadReq.mshrMissRate::total     0.000375                       # mshr miss rate for ReadReq accesses (Ratio)
system.cpu.icache.ReadReq.avgMshrMissLatency::cpu.inst 74972.646973                       # average ReadReq mshr miss latency ((Tick/Count))
system.cpu.icache.ReadReq.avgMshrMissLatency::total 74972.646973                       # average ReadReq mshr miss latency ((Tick/Count))
system.cpu.icache.power_state.pwrStateResidencyTicks::UNDEFINED   5376299500                       # Cumulative time (in ticks) in various power states (Tick)
system.cpu.icache.tags.tagsInUse           509.257885                       # Average ticks per tags in use ((Tick/Count))
system.cpu.icache.tags.totalRefs              3659558                       # Total number of references to valid blocks. (Count)
system.cpu.icache.tags.sampledRefs               1370                       # Sample count of references to valid blocks. (Count)
system.cpu.icache.tags.avgRefs            2671.210219                       # Average number of references to valid blocks. ((Count/Count))
system.cpu.icache.tags.warmupTick               82000                       # The tick when the warmup percentage was hit. (Tick)
system.cpu.icache.tags.occupancies::cpu.inst   509.257885                       # Average occupied blocks per tick, per requestor ((Count/Tick))
system.cpu.icache.tags.avgOccs::cpu.inst     0.994644                       # Average percentage of cache occupancy ((Ratio/Tick))
system.cpu.icache.tags.avgOccs::total        0.994644                       # Average percentage of cache occupancy ((Ratio/Tick))
system.cpu.icache.tags.occupanciesTaskId::1024          512                       # Occupied blocks per task id (Count)
system.cpu.icache.tags.ageTaskId_1024::0           97                       # Occupied blocks per task id, per block age (Count)
system.cpu.icache.tags.ageTaskId_1024::2          323                       # Occupied blocks per task id, per block age (Count)
system.cpu.icache.tags.ageTaskId_1024::3           92                       # Occupied blocks per task id, per block age (Count)
system.cpu.icache.tags.ratioOccsTaskId::1024            1                       # Ratio of occupied blocks and all blocks, per task id (Ratio)
system.cpu.icache.tags.tagAccesses           29281378                       # Number of tag accesses (Count)
system.cpu.icache.tags.dataAccesses          29281378                       # Number of data accesses (Count)
system.cpu.icache.tags.power_state.pwrStateResidencyTicks::UNDEFINED   5376299500                       # Cumulative time (in ticks) in various power states (Tick)
system.cpu.iew.idleCycles                           0                       # Number of cycles IEW is idle (Cycle)
system.cpu.iew.squashCycles                     15239                       # Number of cycles IEW is squashing (Cycle)
system.cpu.iew.blockCycles                     249889                       # Number of cycles IEW is blocking (Cycle)
system.cpu.iew.unblockCycles                    10254                       # Number of cycles IEW is unblocking (Cycle)
system.cpu.iew.dispatchedInsts               35863177                       # Number of instructions dispatched to IQ (Count)
system.cpu.iew.dispSquashedInsts                  385                       # Number of squashed instructions skipped by dispatch (Count)
system.cpu.iew.dispLoadInsts                  8057616                       # Number of dispatched load instructions (Count)
system.cpu.iew.dispStoreInsts                 4113064                       # Number of dispatched store instructions (Count)
system.cpu.iew.dispNonSpecInsts                    35                       # Number of dispatched non-speculative instructions (Count)
system.cpu.iew.iqFullEvents                      2683                       # Number of times the IQ has become full, causing a stall (Count)
system.cpu.iew.lsqFullEvents                     6781                       # Number of times the LSQ has become full, causing a stall (Count)
system.cpu.iew.memOrderViolationEvents            529                       # Number of memory order violations (Count)
system.cpu.iew.predictedTakenIncorrect           5143                       # Number of branches that were predicted taken incorrectly (Count)
system.cpu.iew.predictedNotTakenIncorrect         9521                       # Number of branches that were predicted not taken incorrectly (Count)
system.cpu.iew.branchMispredicts                14664                       # Number of branch mispredicts detected at execute (Count)
system.cpu.iew.instsToCommit                 35669255                       # Cumulative count of insts sent to commit (Count)
system.cpu.iew.writebackCount                35663105                       # Cumulative count of insts written-back (Count)
system.cpu.iew.producerInst                  22832426                       # Number of instructions producing a value (Count)
system.cpu.iew.consumerInst                  30376033                       # Number of instructions consuming a value (Count)
system.cpu.iew.wbRate                        3.316696                       # Insts written-back per cycle ((Count/Cycle))
system.cpu.iew.wbFanout                      0.751659                       # Average fanout of values written-back ((Count/Count))
system.cpu.interrupts.clk_domain.clock           8000                       # Clock period in ticks (Tick)
system.cpu.l2cache.demandHits::cpu.inst            27                       # number of demand (read+write) hits (Count)
system.cpu.l2cache.demandHits::cpu.data          1785                       # number of demand (read+write) hits (Count)
system.cpu.l2cache.demandHits::total             1812                       # number of demand (read+write) hits (Count)
system.cpu.l2cache.overallHits::cpu.inst           27                       # number of overall hits (Count)
system.cpu.l2cache.overallHits::cpu.data         1785                       # number of overall hits (Count)
system.cpu.l2cache.overallHits::total            1812                       # number of overall hits (Count)
system.cpu.l2cache.demandMisses::cpu.inst         1344                       # number of demand (read+write) misses (Count)
system.cpu.l2cache.demandMisses::cpu.data         7211                       # number of demand (read+write) misses (Count)
system.cpu.l2cache.demandMisses::total           8555                       # number of demand (read+write) misses (Count)
system.cpu.l2cache.overallMisses::cpu.inst         1344                       # number of overall misses (Count)
system.cpu.l2cache.overallMisses::cpu.data         7211                       # number of overall misses (Count)
system.cpu.l2cache.overallMisses::total          8555                       # number of overall misses (Count)
system.cpu.l2cache.demandMissLatency::cpu.inst    100442500                       # number of demand (read+write) miss ticks (Tick)
system.cpu.l2cache.demandMissLatency::cpu.data    551196000                       # number of demand (read+write) miss ticks (Tick)
system.cpu.l2cache.demandMissLatency::total    651638500                       # number of demand (read+write) miss ticks (Tick)
system.cpu.l2cache.overallMissLatency::cpu.inst    100442500                       # number of overall miss ticks (Tick)
system.cpu.l2cache.overallMissLatency::cpu.data    551196000                       # number of overall miss ticks (Tick)
system.cpu.l2cache.overallMissLatency::total    651638500                       # number of overall miss ticks (Tick)
system.cpu.l2cache.demandAccesses::cpu.inst         1371                       # number of demand (read+write) accesses (Count)
system.cpu.l2cache.demandAccesses::cpu.data         8996                       # number of demand (read+write) accesses (Count)
system.cpu.l2cache.demandAccesses::total        10367                       # number of demand (read+write) accesses (Count)
system.cpu.l2cache.overallAccesses::cpu.inst         1371                       # number of overall (read+write) accesses (Count)
system.cpu.l2cache.overallAccesses::cpu.data         8996                       # number of overall (read+write) accesses (Count)
system.cpu.l2cache.overallAccesses::total        10367                       # number of overall (read+write) accesses (Count)
system.cpu.l2cache.demandMissRate::cpu.inst     0.980306                       # miss rate for demand accesses (Ratio)
system.cpu.l2cache.demandMissRate::cpu.data     0.801578                       # miss rate for demand accesses (Ratio)
system.cpu.l2cache.demandMissRate::total     0.825215                       # miss rate for demand accesses (Ratio)
system.cpu.l2cache.overallMissRate::cpu.inst     0.980306                       # miss rate for overall accesses (Ratio)
system.cpu.l2cache.overallMissRate::cpu.data     0.801578                       # miss rate for overall accesses (Ratio)
system.cpu.l2cache.overallMissRate::total     0.825215                       # miss rate for overall accesses (Ratio)
system.cpu.l2cache.demandAvgMissLatency::cpu.inst 74734.002976                       # average overall miss latency ((Cycle/Count))
system.cpu.l2cache.demandAvgMissLatency::cpu.data 76438.219387                       # average overall miss latency ((Cycle/Count))
system.cpu.l2cache.demandAvgMissLatency::total 76170.485096                       # average overall miss latency ((Cycle/Count))
system.cpu.l2cache.overallAvgMissLatency::cpu.inst 74734.002976                       # average overall miss latency ((Cycle/Count))
system.cpu.l2cache.overallAvgMissLatency::cpu.data 76438.219387                       # average overall miss latency ((Cycle/Count))
system.cpu.l2cache.overallAvgMissLatency::total 76170.485096                       # average overall miss latency ((Cycle/Count))
system.cpu.l2cache.blockedCycles::no_mshrs            0                       # number of cycles access was blocked (Cycle)
system.cpu.l2cache.blockedCycles::no_targets            0                       # number of cycles access was blocked (Cycle)
system.cpu.l2cache.blockedCauses::no_mshrs            0                       # number of times access was blocked (Count)
system.cpu.l2cache.blockedCauses::no_targets            0                       # number of times access was blocked (Count)
system.cpu.l2cache.avgBlocked::no_mshrs           nan                       # average number of cycles each access was blocked ((Cycle/Count))
system.cpu.l2cache.avgBlocked::no_targets          nan                       # average number of cycles each access was blocked ((Cycle/Count))
system.cpu.l2cache.writebacks::writebacks         4236                       # number of writebacks (Count)
system.cpu.l2cache.writebacks::total             4236                       # number of writebacks (Count)
system.cpu.l2cache.demandMshrMisses::cpu.inst         1344                       # number of demand (read+write) MSHR misses (Count)
system.cpu.l2cache.demandMshrMisses::cpu.data         7211                       # number of demand (read+write) MSHR misses (Count)
system.cpu.l2cache.demandMshrMisses::total         8555                       # number of demand (read+write) MSHR misses (Count)
system.cpu.l2cache.overallMshrMisses::cpu.inst         1344                       # number of overall MSHR misses (Count)
system.cpu.l2cache.overallMshrMisses::cpu.data         7211                       # number of overall MSHR misses (Count)
system.cpu.l2cache.overallMshrMisses::total         8555                       # number of overall MSHR misses (Count)
system.cpu.l2cache.demandMshrMissLatency::cpu.inst     87012500                       # number of demand (read+write) MSHR miss ticks (Tick)
system.cpu.l2cache.demandMshrMissLatency::cpu.data    479086000                       # number of demand (read+write) MSHR miss ticks (Tick)
system.cpu.l2cache.demandMshrMissLatency::total    566098500                       # number of demand (read+write) MSHR miss ticks (Tick)
system.cpu.l2cache.overallMshrMissLatency::cpu.inst     87012500                       # number of overall MSHR miss ticks (Tick)
system.cpu.l2cache.overallMshrMissLatency::cpu.data    479086000                       # number of overall MSHR miss ticks (Tick)
system.cpu.l2cache.overallMshrMissLatency::total    566098500                       # number of overall MSHR miss ticks (Tick)
system.cpu.l2cache.demandMshrMissRate::cpu.inst     0.980306                       # mshr miss ratio for demand accesses (Ratio)
system.cpu.l2cache.demandMshrMissRate::cpu.data     0.801578                       # mshr miss ratio for demand accesses (Ratio)
[...]
system.mem_ctrl.dram.bytesWritten::total       271104                       # Number of bytes written to this memory (Byte)
system.mem_ctrl.dram.numReads::cpu.inst          1343                       # Number of read requests responded to by this memory (Count)
system.mem_ctrl.dram.numReads::cpu.data          7211                       # Number of read requests responded to by this memory (Count)
system.mem_ctrl.dram.numReads::total             8554                       # Number of read requests responded to by this memory (Count)
system.mem_ctrl.dram.numWrites::writebacks         4236                       # Number of write requests responded to by this memory (Count)
system.mem_ctrl.dram.numWrites::total            4236                       # Number of write requests responded to by this memory (Count)
system.mem_ctrl.dram.bwRead::cpu.inst        15987205                       # Total read bandwidth from this memory ((Byte/Second))
system.mem_ctrl.dram.bwRead::cpu.data        85840456                       # Total read bandwidth from this memory ((Byte/Second))
system.mem_ctrl.dram.bwRead::total          101827660                       # Total read bandwidth from this memory ((Byte/Second))
system.mem_ctrl.dram.bwInstRead::cpu.inst     15987205                       # Instruction read bandwidth from this memory ((Byte/Second))
system.mem_ctrl.dram.bwInstRead::total       15987205                       # Instruction read bandwidth from this memory ((Byte/Second))
system.mem_ctrl.dram.bwWrite::writebacks     50425762                       # Write bandwidth from this memory ((Byte/Second))
system.mem_ctrl.dram.bwWrite::total          50425762                       # Write bandwidth from this memory ((Byte/Second))
system.mem_ctrl.dram.bwTotal::writebacks     50425762                       # Total bandwidth to/from this memory ((Byte/Second))
system.mem_ctrl.dram.bwTotal::cpu.inst       15987205                       # Total bandwidth to/from this memory ((Byte/Second))
system.mem_ctrl.dram.bwTotal::cpu.data       85840456                       # Total bandwidth to/from this memory ((Byte/Second))
system.mem_ctrl.dram.bwTotal::total         152253423                       # Total bandwidth to/from this memory ((Byte/Second))
system.mem_ctrl.dram.readBursts                  8537                       # Number of DRAM read bursts (Count)
system.mem_ctrl.dram.writeBursts                 4219                       # Number of DRAM write bursts (Count)
system.mem_ctrl.dram.perBankRdBursts::0           715                       # Per bank write bursts (Count)
system.mem_ctrl.dram.perBankRdBursts::1           693                       # Per bank write bursts (Count)
system.mem_ctrl.dram.perBankRdBursts::2           944                       # Per bank write bursts (Count)
system.mem_ctrl.dram.perBankRdBursts::3           570                       # Per bank write bursts (Count)
system.mem_ctrl.dram.perBankRdBursts::4           468                       # Per bank write bursts (Count)
system.mem_ctrl.dram.perBankRdBursts::5           380                       # Per bank write bursts (Count)
system.mem_ctrl.dram.perBankRdBursts::6           405                       # Per bank write bursts (Count)
system.mem_ctrl.dram.perBankRdBursts::7           320                       # Per bank write bursts (Count)
system.mem_ctrl.dram.perBankRdBursts::8           350                       # Per bank write bursts (Count)
system.mem_ctrl.dram.perBankRdBursts::9           461                       # Per bank write bursts (Count)
system.mem_ctrl.dram.perBankRdBursts::10          593                       # Per bank write bursts (Count)
system.mem_ctrl.dram.perBankRdBursts::11          504                       # Per bank write bursts (Count)
system.mem_ctrl.dram.perBankRdBursts::12          412                       # Per bank write bursts (Count)
system.mem_ctrl.dram.perBankRdBursts::13          522                       # Per bank write bursts (Count)
system.mem_ctrl.dram.perBankRdBursts::14          534                       # Per bank write bursts (Count)
system.mem_ctrl.dram.perBankRdBursts::15          666                       # Per bank write bursts (Count)
system.mem_ctrl.dram.perBankWrBursts::0           400                       # Per bank write bursts (Count)
system.mem_ctrl.dram.perBankWrBursts::1           362                       # Per bank write bursts (Count)
system.mem_ctrl.dram.perBankWrBursts::2           550                       # Per bank write bursts (Count)
system.mem_ctrl.dram.perBankWrBursts::3           324                       # Per bank write bursts (Count)
system.mem_ctrl.dram.perBankWrBursts::4           143                       # Per bank write bursts (Count)
system.mem_ctrl.dram.perBankWrBursts::5           124                       # Per bank write bursts (Count)
system.mem_ctrl.dram.perBankWrBursts::6           249                       # Per bank write bursts (Count)
system.mem_ctrl.dram.perBankWrBursts::7           128                       # Per bank write bursts (Count)
system.mem_ctrl.dram.perBankWrBursts::8           117                       # Per bank write bursts (Count)
system.mem_ctrl.dram.perBankWrBursts::9           187                       # Per bank write bursts (Count)
system.mem_ctrl.dram.perBankWrBursts::10          242                       # Per bank write bursts (Count)
system.mem_ctrl.dram.perBankWrBursts::11          214                       # Per bank write bursts (Count)
system.mem_ctrl.dram.perBankWrBursts::12          128                       # Per bank write bursts (Count)
system.mem_ctrl.dram.perBankWrBursts::13          288                       # Per bank write bursts (Count)
system.mem_ctrl.dram.perBankWrBursts::14          383                       # Per bank write bursts (Count)
system.mem_ctrl.dram.perBankWrBursts::15          380                       # Per bank write bursts (Count)
system.mem_ctrl.dram.totQLat                100920250                       # Total ticks spent queuing (Tick)
system.mem_ctrl.dram.totBusLat               42685000                       # Total ticks spent in databus transfers (Tick)
system.mem_ctrl.dram.totMemAccLat           260989000                       # Total ticks spent from burst creation until serviced by the DRAM (Tick)
system.mem_ctrl.dram.avgQLat                 11821.51                       # Average queueing delay per DRAM burst ((Tick/Count))
system.mem_ctrl.dram.avgBusLat                5000.00                       # Average bus latency per DRAM burst ((Tick/Count))
system.mem_ctrl.dram.avgMemAccLat            30571.51                       # Average memory access latency per DRAM burst ((Tick/Count))
system.mem_ctrl.dram.readRowHits                 7032                       # Number of row buffer hits during reads (Count)
system.mem_ctrl.dram.writeRowHits                3723                       # Number of row buffer hits during writes (Count)
system.mem_ctrl.dram.readRowHitRate             82.37                       # Row buffer hit rate for reads (Ratio)
system.mem_ctrl.dram.writeRowHitRate            88.24                       # Row buffer hit rate for writes (Ratio)
system.mem_ctrl.dram.bytesPerActivate::samples         1987                       # Bytes accessed per row activation (Byte)
system.mem_ctrl.dram.bytesPerActivate::mean   409.219930                       # Bytes accessed per row activation (Byte)
system.mem_ctrl.dram.bytesPerActivate::gmean   274.947886                       # Bytes accessed per row activation (Byte)
system.mem_ctrl.dram.bytesPerActivate::stdev   339.120065                       # Bytes accessed per row activation (Byte)
system.mem_ctrl.dram.bytesPerActivate::0-127          355     17.87%     17.87% # Bytes accessed per row activation (Byte)
system.mem_ctrl.dram.bytesPerActivate::128-255          580     29.19%     47.06% # Bytes accessed per row activation (Byte)
system.mem_ctrl.dram.bytesPerActivate::256-383          148      7.45%     54.50% # Bytes accessed per row activation (Byte)
system.mem_ctrl.dram.bytesPerActivate::384-511          272     13.69%     68.19% # Bytes accessed per row activation (Byte)
system.mem_ctrl.dram.bytesPerActivate::512-639          125      6.29%     74.48% # Bytes accessed per row activation (Byte)
system.mem_ctrl.dram.bytesPerActivate::640-767           77      3.88%     78.36% # Bytes accessed per row activation (Byte)
system.mem_ctrl.dram.bytesPerActivate::768-895           62      3.12%     81.48% # Bytes accessed per row activation (Byte)
system.mem_ctrl.dram.bytesPerActivate::896-1023           65      3.27%     84.75% # Bytes accessed per row activation (Byte)
system.mem_ctrl.dram.bytesPerActivate::1024-1151          303     15.25%    100.00% # Bytes accessed per row activation (Byte)
system.mem_ctrl.dram.bytesPerActivate::total         1987                       # Bytes accessed per row activation (Byte)
system.mem_ctrl.dram.bytesRead                 546368                       # Total bytes read (Byte)
system.mem_ctrl.dram.bytesWritten              270016                       # Total bytes written (Byte)
system.mem_ctrl.dram.avgRdBW               101.625291                       # Average DRAM read bandwidth in MiBytes/s ((Byte/Second))
system.mem_ctrl.dram.avgWrBW                50.223393                       # Average DRAM write bandwidth in MiBytes/s ((Byte/Second))
system.mem_ctrl.dram.peakBW                  12800.00                       # Theoretical peak bandwidth in MiByte/s ((Byte/Second))
system.mem_ctrl.dram.busUtil                     1.19                       # Data bus utilization in percentage (Ratio)
system.mem_ctrl.dram.busUtilRead                 0.79                       # Data bus utilization in percentage for reads (Ratio)
system.mem_ctrl.dram.busUtilWrite                0.39                       # Data bus utilization in percentage for writes (Ratio)
system.mem_ctrl.dram.pageHitRate                84.31                       # Row buffer hit rate, read and write combined (Ratio)
system.mem_ctrl.dram.power_state.pwrStateResidencyTicks::UNDEFINED   5376299500                       # Cumulative time (in ticks) in various power states (Tick)
system.mem_ctrl.dram.rank0.actEnergy          7561260                       # Energy for activate commands per rank (pJ) (Joule)
system.mem_ctrl.dram.rank0.preEnergy          3992340                       # Energy for precharge commands per rank (pJ) (Joule)
system.mem_ctrl.dram.rank0.readEnergy        32094300                       # Energy for read commands per rank (pJ) (Joule)
system.mem_ctrl.dram.rank0.writeEnergy       11901600                       # Energy for write commands per rank (pJ) (Joule)
system.mem_ctrl.dram.rank0.refreshEnergy 424101600.000000                       # Energy for refresh commands per rank (pJ) (Joule)
system.mem_ctrl.dram.rank0.actBackEnergy   1063250640                       # Energy for active background per rank (pJ) (Joule)
system.mem_ctrl.dram.rank0.preBackEnergy   1169130240                       # Energy for precharge background per rank (pJ) (Joule)
system.mem_ctrl.dram.rank0.actPowerDownEnergy            0                       # Energy for active power-down per rank (pJ) (Joule)
system.mem_ctrl.dram.rank0.prePowerDownEnergy            0                       # Energy for precharge power-down per rank (pJ) (Joule)
system.mem_ctrl.dram.rank0.selfRefreshEnergy            0                       # Energy for self refresh per rank (pJ) (Joule)
system.mem_ctrl.dram.rank0.totalEnergy     2712031980                       # Total energy per rank (pJ) (Joule)
system.mem_ctrl.dram.rank0.averagePower    504.442132                       # Core power per rank (mW) (Watt)
system.mem_ctrl.dram.rank0.totalIdleTime            0                       # Total Idle time Per DRAM Rank (Tick)
system.mem_ctrl.dram.rank0.pwrStateTime::IDLE   3028357250                       # Time in different power states (Tick)
system.mem_ctrl.dram.rank0.pwrStateTime::REF    179400000                       # Time in different power states (Tick)
system.mem_ctrl.dram.rank0.pwrStateTime::SREF            0                       # Time in different power states (Tick)
system.mem_ctrl.dram.rank0.pwrStateTime::PRE_PDN            0                       # Time in different power states (Tick)
system.mem_ctrl.dram.rank0.pwrStateTime::ACT   2168542250                       # Time in different power states (Tick)
system.mem_ctrl.dram.rank0.pwrStateTime::ACT_PDN            0                       # Time in different power states (Tick)
system.mem_ctrl.dram.rank1.actEnergy          6725880                       # Energy for activate commands per rank (pJ) (Joule)
system.mem_ctrl.dram.rank1.preEnergy          3548325                       # Energy for precharge commands per rank (pJ) (Joule)
system.mem_ctrl.dram.rank1.readEnergy        28859880                       # Energy for read commands per rank (pJ) (Joule)
system.mem_ctrl.dram.rank1.writeEnergy       10121580                       # Energy for write commands per rank (pJ) (Joule)
system.mem_ctrl.dram.rank1.refreshEnergy 424101600.000000                       # Energy for refresh commands per rank (pJ) (Joule)
system.mem_ctrl.dram.rank1.actBackEnergy    841251600                       # Energy for active background per rank (pJ) (Joule)
system.mem_ctrl.dram.rank1.preBackEnergy   1356076800                       # Energy for precharge background per rank (pJ) (Joule)
system.mem_ctrl.dram.rank1.actPowerDownEnergy            0                       # Energy for active power-down per rank (pJ) (Joule)
system.mem_ctrl.dram.rank1.prePowerDownEnergy            0                       # Energy for precharge power-down per rank (pJ) (Joule)
system.mem_ctrl.dram.rank1.selfRefreshEnergy            0                       # Energy for self refresh per rank (pJ) (Joule)
system.mem_ctrl.dram.rank1.totalEnergy     2670685665                       # Total energy per rank (pJ) (Joule)
system.mem_ctrl.dram.rank1.averagePower    496.751653                       # Core power per rank (mW) (Watt)
system.mem_ctrl.dram.rank1.totalIdleTime            0                       # Total Idle time Per DRAM Rank (Tick)
system.mem_ctrl.dram.rank1.pwrStateTime::IDLE   3516218500                       # Time in different power states (Tick)
system.mem_ctrl.dram.rank1.pwrStateTime::REF    179400000                       # Time in different power states (Tick)
system.mem_ctrl.dram.rank1.pwrStateTime::SREF            0                       # Time in different power states (Tick)
system.mem_ctrl.dram.rank1.pwrStateTime::PRE_PDN            0                       # Time in different power states (Tick)
system.mem_ctrl.dram.rank1.pwrStateTime::ACT   1680681000                       # Time in different power states (Tick)
system.mem_ctrl.dram.rank1.pwrStateTime::ACT_PDN            0                       # Time in different power states (Tick)
system.mem_ctrl.power_state.pwrStateResidencyTicks::UNDEFINED   5376299500                       # Cumulative time (in ticks) in various power states (Tick)
system.membus.transDist::ReadResp                6893                       # Transaction distribution (Count)
system.membus.transDist::WritebackDirty          4236                       # Transaction distribution (Count)
system.membus.transDist::CleanEvict              2085                       # Transaction distribution (Count)
system.membus.transDist::ReadExReq               1661                       # Transaction distribution (Count)
system.membus.transDist::ReadExResp              1661                       # Transaction distribution (Count)
system.membus.transDist::ReadSharedReq           6893                       # Transaction distribution (Count)
system.membus.pktCount_system.cpu.l2cache.mem_side_port::system.mem_ctrl.port        23429                       # Packet count per connected requestor and responder (Count)
system.membus.pktCount_system.cpu.l2cache.mem_side_port::total        23429                       # Packet count per connected requestor and responder (Count)
system.membus.pktCount::total                   23429                       # Packet count per connected requestor and responder (Count)
system.membus.pktSize_system.cpu.l2cache.mem_side_port::system.mem_ctrl.port       818560                       # Cumulative packet size per connected requestor and responder (Byte)
system.membus.pktSize_system.cpu.l2cache.mem_side_port::total       818560                       # Cumulative packet size per connected requestor and responder (Byte)
system.membus.pktSize::total                   818560                       # Cumulative packet size per connected requestor and responder (Byte)
system.membus.snoops                                0                       # Total snoops (Count)
system.membus.snoopTraffic                          0                       # Total snoop traffic (Byte)
system.membus.snoopFanout::samples               8554                       # Request fanout histogram (Count)
system.membus.snoopFanout::mean                     0                       # Request fanout histogram (Count)
system.membus.snoopFanout::stdev                    0                       # Request fanout histogram (Count)
system.membus.snoopFanout::underflows               0      0.00%      0.00% # Request fanout histogram (Count)
system.membus.snoopFanout::0                     8554    100.00%    100.00% # Request fanout histogram (Count)
system.membus.snoopFanout::1                        0      0.00%    100.00% # Request fanout histogram (Count)
system.membus.snoopFanout::overflows                0      0.00%    100.00% # Request fanout histogram (Count)
system.membus.snoopFanout::min_value                0                       # Request fanout histogram (Count)
system.membus.snoopFanout::max_value                0                       # Request fanout histogram (Count)
system.membus.snoopFanout::total                 8554                       # Request fanout histogram (Count)
system.membus.power_state.pwrStateResidencyTicks::UNDEFINED   5376299500                       # Cumulative time (in ticks) in various power states (Tick)
system.membus.reqLayer2.occupancy            15909500                       # Layer occupancy (ticks) (Tick)
system.membus.reqLayer2.utilization               0.0                       # Layer utilization (Ratio)
system.membus.respLayer0.occupancy           22969500                       # Layer occupancy (ticks) (Tick)
system.membus.respLayer0.utilization              0.0                       # Layer utilization (Ratio)
system.membus.snoop_filter.totRequests          14875                       # Total number of requests made to the snoop filter. (Count)
system.membus.snoop_filter.hitSingleRequests         6322                       # Number of requests hitting in the snoop filter with a single holder of the requested data. (Count)
system.membus.snoop_filter.hitMultiRequests            0                       # Number of requests hitting in the snoop filter with multiple (>1) holders of the requested data. (Count)
system.membus.snoop_filter.totSnoops                0                       # Total number of snoops made to the snoop filter. (Count)
system.membus.snoop_filter.hitSingleSnoops            0                       # Number of snoops hitting in the snoop filter with a single holder of the requested data. (Count)
system.membus.snoop_filter.hitMultiSnoops            0                       # Number of snoops hitting in the snoop filter with multiple (>1) holders of the requested data. (Count)
system.workload.inst.arm                            0                       # number of arm instructions executed (Count)
system.workload.inst.quiesce                        0                       # number of quiesce instructions executed (Count)

---------- End Simulation Statistics   ----------
