
---------- Begin Simulation Statistics ----------
simSeconds                                   0.005600                       # Number of seconds simulated (Second)
simTicks                                   5600161500                       # Number of ticks simulated (Tick)
finalTick                                  5600161500                       # Number of ticks from beginning of simulation (restored from checkpoints and never reset) (Tick)
simFreq                                  1000000000000                       # The number of ticks per simulated second ((Tick/Second))
hostSeconds                                    138.68                       # Real time elapsed on the host (Second)
hostTickRate                                 40381087                       # The number of ticks simulated per host second (ticks/s) ((Tick/Second))
hostMemory                                    1199784                       # Number of bytes of host memory used (Byte)
simInsts                                     19928450                       # Number of instructions simulated (Count)
simOps                                       35336477                       # Number of ops (including micro ops) simulated (Count)
hostInstRate                                   143698                       # Simulator instruction rate (inst/s) ((Count/Second))
hostOpRate                                     254800                       # Simulator op (including micro ops) rate (op/s) ((Count/Second))
system.clk_domain.clock                           500                       # Clock period in ticks (Tick)
system.clk_domain.voltage_domain.voltage            1                       # Voltage in Volts (Volt)
system.cpu.numCycles                         11200324                       # Number of cpu cycles simulated (Cycle)
system.cpu.numWorkItemsStarted                      0                       # Number of work items this cpu started (Count)
system.cpu.numWorkItemsCompleted                    0                       # Number of work items this cpu completed (Count)
system.cpu.instsAdded                        36811911                       # Number of instructions added to the IQ (excludes non-spec) (Count)
system.cpu.nonSpecInstsAdded                       36                       # Number of non-speculative instructions added to the IQ (Count)
system.cpu.instsIssued                       36429984                       # Number of instructions issued (Count)
system.cpu.squashedInstsIssued                   2249                       # Number of squashed instructions issued (Count)
system.cpu.squashedInstsExamined              1475464                       # Number of squashed instructions iterated over during squash; mainly for profiling (Count)
system.cpu.squashedOperandsExamined           1723896                       # Number of squashed operands that are examined and possibly removed from graph (Count)
system.cpu.squashedNonSpecRemoved                  18                       # Number of squashed non-spec instructions that were removed (Count)
system.cpu.numIssuedDist::samples            11093133                       # Number of insts issued each cycle (Count)
system.cpu.numIssuedDist::mean               3.284012                       # Number of insts issued each cycle (Count)
system.cpu.numIssuedDist::stdev              1.991009                       # Number of insts issued each cycle (Count)
system.cpu.numIssuedDist::underflows                0      0.00%      0.00% # Number of insts issued each cycle (Count)
system.cpu.numIssuedDist::0                   1054012      9.50%      9.50% # Number of insts issued each cycle (Count)
system.cpu.numIssuedDist::1                   1263030     11.39%     20.89% # Number of insts issued each cycle (Count)
system.cpu.numIssuedDist::2                    941882      8.49%     29.38% # Number of insts issued each cycle (Count)
system.cpu.numIssuedDist::3                   3446626     31.07%     60.45% # Number of insts issued each cycle (Count)
system.cpu.numIssuedDist::4                   1740159     15.69%     76.13% # Number of insts issued each cycle (Count)
system.cpu.numIssuedDist::5                   1110527     10.01%     86.15% # Number of insts issued each cycle (Count)
system.cpu.numIssuedDist::6                    785346      7.08%     93.23% # Number of insts issued each cycle (Count)
system.cpu.numIssuedDist::7                    294443      2.65%     95.88% # Number of insts issued each cycle (Count)
system.cpu.numIssuedDist::8                    457108      4.12%    100.00% # Number of insts issued each cycle (Count)
system.cpu.numIssuedDist::overflows                 0      0.00%    100.00% # Number of insts issued each cycle (Count)
system.cpu.numIssuedDist::min_value                 0                       # Number of insts issued each cycle (Count)
system.cpu.numIssuedDist::max_value                 8                       # Number of insts issued each cycle (Count)
system.cpu.numIssuedDist::total              11093133                       # Number of insts issued each cycle (Count)
system.cpu.statFuBusy::No_OpClass                   0      0.00%      0.00% # attempts to use FU when none available (Count)
system.cpu.statFuBusy::IntAlu                  568518     95.01%     95.01% # attempts to use FU when none available (Count)
system.cpu.statFuBusy::IntMult                      0      0.00%     95.01% # attempts to use FU when none available (Count)
system.cpu.statFuBusy::IntDiv                       0      0.00%     95.01% # attempts to use FU when none available (Count)
system.cpu.statFuBusy::FloatAdd                     0      0.00%     95.01% # attempts to use FU when none available (Count)
system.cpu.statFuBusy::FloatCmp                     0      0.00%     95.01% # attempts to use FU when none available (Count)
system.cpu.statFuBusy::FloatCvt                     0      0.00%     95.01% # attempts to use FU when none available (Count)
system.cpu.statFuBusy::FloatMult                    0      0.00%     95.01% # attempts to use FU when none available (Count)
system.cpu.statFuBusy::FloatMultAcc                 0      0.00%     95.01% # attempts to use FU when none available (Count)
system.cpu.statFuBusy::FloatDiv                     0      0.00%     95.01% # attempts to use FU when none available (Count)
system.cpu.statFuBusy::FloatMisc                    0      0.00%     95.01% # attempts to use FU when none available (Count)
system.cpu.statFuBusy::FloatSqrt                    0      0.00%     95.01% # attempts to use FU when none available (Count)
system.cpu.statFuBusy::SimdAdd                      0      0.00%     95.01% # attempts to use FU when none available (Count)
system.cpu.statFuBusy::SimdAddAcc                   0      0.00%     95.01% # attempts to use FU when none available (Count)
system.cpu.statFuBusy::SimdAlu                   1015      0.17%     95.18% # attempts to use FU when none available (Count)
system.cpu.statFuBusy::SimdCmp                      0      0.00%     95.18% # attempts to use FU when none available (Count)
system.cpu.statFuBusy::SimdCvt                     19      0.00%     95.19% # attempts to use FU when none available (Count)
system.cpu.statFuBusy::SimdMisc                    10      0.00%     95.19% # attempts to use FU when none available (Count)
system.cpu.statFuBusy::SimdMult                     0      0.00%     95.19% # attempts to use FU when none available (Count)
system.cpu.statFuBusy::SimdMultAcc                  0      0.00%     95.19% # attempts to use FU when none available (Count)
system.cpu.statFuBusy::SimdShift                    0      0.00%     95.19% # attempts to use FU when none available (Count)
system.cpu.statFuBusy::SimdShiftAcc                 0      0.00%     95.19% # attempts to use FU when none available (Count)
system.cpu.statFuBusy::SimdDiv                      0      0.00%     95.19% # attempts to use FU when none available (Count)
system.cpu.statFuBusy::SimdSqrt                     0      0.00%     95.19% # attempts to use FU when none available (Count)
system.cpu.statFuBusy::SimdFloatAdd                 0      0.00%     95.19% # attempts to use FU when none available (Count)
system.cpu.statFuBusy::SimdFloatAlu                 0      0.00%     95.19% # attempts to use FU when none available (Count)
system.cpu.statFuBusy::SimdFloatCmp                 0      0.00%     95.19% # attempts to use FU when none available (Count)
system.cpu.statFuBusy::SimdFloatCvt                 0      0.00%     95.19% # attempts to use FU when none available (Count)
system.cpu.statFuBusy::SimdFloatDiv                 0      0.00%     95.19% # attempts to use FU when none available (Count)
system.cpu.statFuBusy::SimdFloatMisc                0      0.00%     95.19% # attempts to use FU when none available (Count)
system.cpu.statFuBusy::SimdFloatMult                0      0.00%     95.19% # attempts to use FU when none available (Count)
system.cpu.statFuBusy::SimdFloatMultAcc             0      0.00%     95.19% # attempts to use FU when none available (Count)
system.cpu.statFuBusy::SimdFloatSqrt                0      0.00%     95.19% # attempts to use FU when none available (Count)
system.cpu.statFuBusy::SimdReduceAdd                0      0.00%     95.19% # attempts to use FU when none available (Count)
system.cpu.statFuBusy::SimdReduceAlu                0      0.00%     95.19% # attempts to use FU when none available (Count)
system.cpu.statFuBusy::SimdReduceCmp                0      0.00%     95.19% # attempts to use FU when none available (Count)
system.cpu.statFuBusy::SimdFloatReduceAdd            0      0.00%     95.19% # attempts to use FU when none available (Count)
system.cpu.statFuBusy::SimdFloatReduceCmp            0      0.00%     95.19% # attempts to use FU when none available (Count)
system.cpu.statFuBusy::SimdAes                      0      0.00%     95.19% # attempts to use FU when none available (Count)
system.cpu.statFuBusy::SimdAesMix                   0      0.00%     95.19% # attempts to use FU when none available (Count)
system.cpu.statFuBusy::SimdSha1Hash                 0      0.00%     95.19% # attempts to use FU when none available (Count)
system.cpu.statFuBusy::SimdSha1Hash2                0      0.00%     95.19% # attempts to use FU when none available (Count)
system.cpu.statFuBusy::SimdSha256Hash               0      0.00%     95.19% # attempts to use FU when none available (Count)
system.cpu.statFuBusy::SimdSha256Hash2              0      0.00%     95.19% # attempts to use FU when none available (Count)
system.cpu.statFuBusy::SimdShaSigma2                0      0.00%     95.19% # attempts to use FU when none available (Count)
system.cpu.statFuBusy::SimdShaSigma3                0      0.00%     95.19% # attempts to use FU when none available (Count)
system.cpu.statFuBusy::SimdPredAlu                  0      0.00%     95.19% # attempts to use FU when none available (Count)
system.cpu.statFuBusy::MemRead                  18444      3.08%     98.27% # attempts to use FU when none available (Count)
system.cpu.statFuBusy::MemWrite                  4380      0.73%     99.00% # attempts to use FU when none available (Count)
system.cpu.statFuBusy::FloatMemRead              1106      0.18%     99.19% # attempts to use FU when none available (Count)
system.cpu.statFuBusy::FloatMemWrite             4861      0.81%    100.00% # attempts to use FU when none available (Count)
system.cpu.statFuBusy::IprAccess                    0      0.00%    100.00% # attempts to use FU when none available (Count)
system.cpu.statFuBusy::InstPrefetch                 0      0.00%    100.00% # attempts to use FU when none available (Count)
system.cpu.statIssuedInstType_0::No_OpClass       630376      1.73%      1.73% # Number of instructions issued per FU type, per thread (Count)
system.cpu.statIssuedInstType_0::IntAlu      20808693     57.12%     58.85% # Number of instructions issued per FU type, per thread (Count)
system.cpu.statIssuedInstType_0::IntMult       521078      1.43%     60.28% # Number of instructions issued per FU type, per thread (Count)
system.cpu.statIssuedInstType_0::IntDiv         55970      0.15%     60.43% # Number of instructions issued per FU type, per thread (Count)
system.cpu.statIssuedInstType_0::FloatAdd      1527197      4.19%     64.63% # Number of instructions issued per FU type, per thread (Count)
system.cpu.statIssuedInstType_0::FloatCmp            0      0.00%     64.63% # Number of instructions issued per FU type, per thread (Count)
system.cpu.statIssuedInstType_0::FloatCvt           32      0.00%     64.63% # Number of instructions issued per FU type, per thread (Count)
system.cpu.statIssuedInstType_0::FloatMult            0      0.00%     64.63% # Number of instructions issued per FU type, per thread (Count)
system.cpu.statIssuedInstType_0::FloatMultAcc            0      0.00%     64.63% # Number of instructions issued per FU type, per thread (Count)
system.cpu.statIssuedInstType_0::FloatDiv            0      0.00%     64.63% # Number of instructions issued per FU type, per thread (Count)
system.cpu.statIssuedInstType_0::FloatMisc            0      0.00%     64.63% # Number of instructions issued per FU type, per thread (Count)
system.cpu.statIssuedInstType_0::FloatSqrt            0      0.00%     64.63% # Number of instructions issued per FU type, per thread (Count)
system.cpu.statIssuedInstType_0::SimdAdd          439      0.00%     64.63% # Number of instructions issued per FU type, per thread (Count)
system.cpu.statIssuedInstType_0::SimdAddAcc            0      0.00%     64.63% # Number of instructions issued per FU type, per thread (Count)
system.cpu.statIssuedInstType_0::SimdAlu        18993      0.05%     64.68% # Number of instructions issued per FU type, per thread (Count)
system.cpu.statIssuedInstType_0::SimdCmp            8      0.00%     64.68% # Number of instructions issued per FU type, per thread (Count)
system.cpu.statIssuedInstType_0::SimdCvt        11039      0.03%     64.71% # Number of instructions issued per FU type, per thread (Count)
system.cpu.statIssuedInstType_0::SimdMisc        24967      0.07%     64.78% # Number of instructions issued per FU type, per thread (Count)
system.cpu.statIssuedInstType_0::SimdMult            0      0.00%     64.78% # Number of instructions issued per FU type, per thread (Count)
system.cpu.statIssuedInstType_0::SimdMultAcc            0      0.00%     64.78% # Number of instructions issued per FU type, per thread (Count)
system.cpu.statIssuedInstType_0::SimdShift          302      0.00%     64.78% # Number of instructions issued per FU type, per thread (Count)
system.cpu.statIssuedInstType_0::SimdShiftAcc            0      0.00%     64.78% # Number of instructions issued per FU type, per thread (Count)
system.cpu.statIssuedInstType_0::SimdDiv            0      0.00%     64.78% # Number of instructions issued per FU type, per thread (Count)
system.cpu.statIssuedInstType_0::SimdSqrt            0      0.00%     64.78% # Number of instructions issued per FU type, per thread (Count)
system.cpu.statIssuedInstType_0::SimdFloatAdd            0      0.00%     64.78% # Number of instructions issued per FU type, per thread (Count)
system.cpu.statIssuedInstType_0::SimdFloatAlu            0      0.00%     64.78% # Number of instructions issued per FU type, per thread (Count)
system.cpu.statIssuedInstType_0::SimdFloatCmp            0      0.00%     64.78% # Number of instructions issued per FU type, per thread (Count)
system.cpu.statIssuedInstType_0::SimdFloatCvt       509600      1.40%     66.18% # Number of instructions issued per FU type, per thread (Count)
system.cpu.statIssuedInstType_0::SimdFloatDiv            0      0.00%     66.18% # Number of instructions issued per FU type, per thread (Count)
system.cpu.statIssuedInstType_0::SimdFloatMisc            0      0.00%     66.18% # Number of instructions issued per FU type, per thread (Count)
system.cpu.statIssuedInstType_0::SimdFloatMult            0      0.00%     66.18% # Number of instructions issued per FU type, per thread (Count)
system.cpu.statIssuedInstType_0::SimdFloatMultAcc            0      0.00%     66.18% # Number of instructions issued per FU type, per thread (Count)
system.cpu.statIssuedInstType_0::SimdFloatSqrt            0      0.00%     66.18% # Number of instructions issued per FU type, per thread (Count)
system.cpu.statIssuedInstType_0::SimdReduceAdd            0      0.00%     66.18% # Number of instructions issued per FU type, per thread (Count)
system.cpu.statIssuedInstType_0::SimdReduceAlu            0      0.00%     66.18% # Number of instructions issued per FU type, per thread (Count)
system.cpu.statIssuedInstType_0::SimdReduceCmp            0      0.00%     66.18% # Number of instructions issued per FU type, per thread (Count)
system.cpu.statIssuedInstType_0::SimdFloatReduceAdd            0      0.00%     66.18% # Number of instructions issued per FU type, per thread (Count)
system.cpu.statIssuedInstType_0::SimdFloatReduceCmp            0      0.00%     66.18% # Number of instructions issued per FU type, per thread (Count)
system.cpu.statIssuedInstType_0::SimdAes            0      0.00%     66.18% # Number of instructions issued per FU type, per thread (Count)
system.cpu.statIssuedInstType_0::SimdAesMix            0      0.00%     66.18% # Number of instructions issued per FU type, per thread (Count)
system.cpu.statIssuedInstType_0::SimdSha1Hash            0      0.00%     66.18% # Number of instructions issued per FU type, per thread (Count)
system.cpu.statIssuedInstType_0::SimdSha1Hash2            0      0.00%     66.18% # Number of instructions issued per FU type, per thread (Count)
system.cpu.statIssuedInstType_0::SimdSha256Hash            0      0.00%     66.18% # Number of instructions issued per FU type, per thread (Count)
system.cpu.statIssuedInstType_0::SimdSha256Hash2            0      0.00%     66.18% # Number of instructions issued per FU type, per thread (Count)
system.cpu.statIssuedInstType_0::SimdShaSigma2            0      0.00%     66.18% # Number of instructions issued per FU type, per thread (Count)
system.cpu.statIssuedInstType_0::SimdShaSigma3            0      0.00%     66.18% # Number of instructions issued per FU type, per thread (Count)
system.cpu.statIssuedInstType_0::SimdPredAlu            0      0.00%     66.18% # Number of instructions issued per FU type, per thread (Count)
system.cpu.statIssuedInstType_0::MemRead      6109456     16.77%     82.95% # Number of instructions issued per FU type, per thread (Count)
system.cpu.statIssuedInstType_0::MemWrite      3117393      8.56%     91.51% # Number of instructions issued per FU type, per thread (Count)
system.cpu.statIssuedInstType_0::FloatMemRead      2062081      5.66%     97.17% # Number of instructions issued per FU type, per thread (Count)
system.cpu.statIssuedInstType_0::FloatMemWrite      1032360      2.83%    100.00% # Number of instructions issued per FU type, per thread (Count)
system.cpu.statIssuedInstType_0::IprAccess            0      0.00%    100.00% # Number of instructions issued per FU type, per thread (Count)
system.cpu.statIssuedInstType_0::InstPrefetch            0      0.00%    100.00% # Number of instructions issued per FU type, per thread (Count)
system.cpu.statIssuedInstType_0::total       36429984                       # Number of instructions issued per FU type, per thread (Count)
system.cpu.issueRate                         3.252583                       # Inst issue rate ((Count/Cycle))
system.cpu.fuBusy                              598353                       # FU busy when requested (Count)
system.cpu.fuBusyRate                        0.016425                       # FU busy rate (busy events/executed inst) ((Count/Count))
system.cpu.intInstQueueReads                 74155996                       # Number of integer instruction queue reads (Count)
system.cpu.intInstQueueWrites                32994592                       # Number of integer instruction queue writes (Count)
system.cpu.intInstQueueWakeupAccesses        31080717                       # Number of integer instruction queue wakeup accesses (Count)
system.cpu.fpInstQueueReads                  10397707                       # Number of floating instruction queue reads (Count)
system.cpu.fpInstQueueWrites                  5293312                       # Number of floating instruction queue writes (Count)
system.cpu.fpInstQueueWakeupAccesses          5170919                       # Number of floating instruction queue wakeup accesses (Count)
system.cpu.vecInstQueueReads                        0                       # Number of vector instruction queue reads (Count)
system.cpu.vecInstQueueWrites                       0                       # Number of vector instruction queue writes (Count)
system.cpu.vecInstQueueWakeupAccesses               0                       # Number of vector instruction queue wakeup accesses (Count)
system.cpu.intAluAccesses                    31195615                       # Number of integer alu accesses (Count)
system.cpu.fpAluAccesses                      5202346                       # Number of floating point alu accesses (Count)
system.cpu.vecAluAccesses                           0                       # Number of vector alu accesses (Count)
system.cpu.numInsts                          36316565                       # Number of executed instructions (Count)
system.cpu.numLoadInsts                       8149065                       # Number of load instructions executed (Count)
system.cpu.numSquashedInsts                    113419                       # Number of squashed instructions skipped in execute (Count)
system.cpu.numSwp                                   0                       # Number of swp insts executed (Count)
system.cpu.numNop                                   0                       # Number of nop insts executed (Count)
system.cpu.numRefs                           12289004                       # Number of memory reference insts executed (Count)
system.cpu.numBranches                        3362348                       # Number of branches executed (Count)
system.cpu.numStoreInsts                      4139939                       # Number of stores executed (Count)
system.cpu.numRate                           3.242457                       # Inst execution rate ((Count/Cycle))
system.cpu.timesIdled                            3016                       # Number of times that the entire CPU went into an idle state and unscheduled itself (Count)
system.cpu.idleCycles                          107191                       # Total number of cycles that the CPU has spent unscheduled due to idling (Cycle)
system.cpu.committedInsts                    19928450                       # Number of Instructions Simulated (Count)
system.cpu.committedOps                      35336477                       # Number of Ops (including micro ops) Simulated (Count)
system.cpu.cpi                               0.562027                       # CPI: Cycles Per Instruction ((Cycle/Count))
system.cpu.totalCpi                          0.562027                       # CPI: Total CPI of All Threads ((Cycle/Count))
system.cpu.ipc                               1.779274                       # IPC: Instructions Per Cycle ((Count/Cycle))
system.cpu.totalIpc                          1.779274                       # IPC: Total IPC of All Threads ((Count/Cycle))
system.cpu.intRegfileReads                   56538283                       # Number of integer regfile reads (Count)
system.cpu.intRegfileWrites                  24638220                       # Number of integer regfile writes (Count)
system.cpu.fpRegfileReads                     2182226                       # Number of floating regfile reads (Count)
system.cpu.fpRegfileWrites                    3621490                       # Number of floating regfile writes (Count)
system.cpu.ccRegfileReads                    10558146                       # number of cc regfile reads (Count)
system.cpu.ccRegfileWrites                    6016910                       # number of cc regfile writes (Count)
system.cpu.miscRegfileReads                  18517247                       # number of misc regfile reads (Count)
system.cpu.miscRegfileWrites                       18                       # number of misc regfile writes (Count)
system.cpu.MemDepUnit__0.insertedLoads        8209131                       # Number of loads inserted to the mem dependence unit. (Count)
system.cpu.MemDepUnit__0.insertedStores       4186638                       # Number of stores inserted to the mem dependence unit. (Count)
system.cpu.MemDepUnit__0.conflictingLoads      2587500                       # Number of conflicting loads. (Count)
system.cpu.MemDepUnit__0.conflictingStores       621037                       # Number of conflicting stores. (Count)
system.cpu.MemDepUnit__1.insertedLoads              0                       # Number of loads inserted to the mem dependence unit. (Count)
system.cpu.MemDepUnit__1.insertedStores             0                       # Number of stores inserted to the mem dependence unit. (Count)
system.cpu.MemDepUnit__1.conflictingLoads            0                       # Number of conflicting loads. (Count)
system.cpu.MemDepUnit__1.conflictingStores            0                       # Number of conflicting stores. (Count)
system.cpu.MemDepUnit__2.insertedLoads              0                       # Number of loads inserted to the mem dependence unit. (Count)
system.cpu.MemDepUnit__2.insertedStores             0                       # Number of stores inserted to the mem dependence unit. (Count)
system.cpu.MemDepUnit__2.conflictingLoads            0                       # Number of conflicting loads. (Count)
system.cpu.MemDepUnit__2.conflictingStores            0                       # Number of conflicting stores. (Count)
system.cpu.MemDepUnit__3.insertedLoads              0                       # Number of loads inserted to the mem dependence unit. (Count)
system.cpu.MemDepUnit__3.insertedStores             0                       # Number of stores inserted to the mem dependence unit. (Count)
system.cpu.MemDepUnit__3.conflictingLoads            0                       # Number of conflicting loads. (Count)
system.cpu.MemDepUnit__3.conflictingStores            0                       # Number of conflicting stores. (Count)
system.cpu.branchPred.lookups                 3550126                       # Number of BP lookups (Count)
system.cpu.branchPred.condPredicted           1742029                       # Number of conditional branches predicted (Count)
system.cpu.branchPred.condIncorrect             46729                       # Number of conditional branches incorrect (Count)
system.cpu.branchPred.BTBLookups              1454921                       # Number of BTB lookups (Count)
system.cpu.branchPred.BTBHits                 1442396                       # Number of BTB hits (Count)
system.cpu.branchPred.BTBHitRatio            0.991391                       # BTB Hit Ratio (Ratio)
system.cpu.branchPred.RASUsed                  589883                       # Number of times the RAS was used to get a target. (Count)
system.cpu.branchPred.RASIncorrect                990                       # Number of incorrect RAS predictions. (Count)
system.cpu.branchPred.indirectLookups          559934                       # Number of indirect predictor lookups. (Count)
system.cpu.branchPred.indirectHits             533635                       # Number of indirect target hits. (Count)
system.cpu.branchPred.indirectMisses            26299                       # Number of indirect misses. (Count)
system.cpu.branchPred.indirectMispredicted          300                       # Number of mispredicted indirect branches. (Count)
system.cpu.commit.commitSquashedInsts         1443314                       # The number of squashed insts skipped by commit (Count)
system.cpu.commit.commitNonSpecStalls              18                       # The number of times commit has been forced to stall to communicate backwards (Count)
system.cpu.commit.branchMispredicts             46341                       # The number of times a branch was mispredicted (Count)
system.cpu.commit.numCommittedDist::samples     10887698                       # Number of insts commited each cycle (Count)
system.cpu.commit.numCommittedDist::mean     3.245542                       # Number of insts commited each cycle (Count)
system.cpu.commit.numCommittedDist::stdev     3.101625                       # Number of insts commited each cycle (Count)
system.cpu.commit.numCommittedDist::underflows            0      0.00%      0.00% # Number of insts commited each cycle (Count)
system.cpu.commit.numCommittedDist::0         3088792     28.37%     28.37% # Number of insts commited each cycle (Count)
system.cpu.commit.numCommittedDist::1          839898      7.71%     36.08% # Number of insts commited each cycle (Count)
system.cpu.commit.numCommittedDist::2         1907758     17.52%     53.61% # Number of insts commited each cycle (Count)
system.cpu.commit.numCommittedDist::3         1271870     11.68%     65.29% # Number of insts commited each cycle (Count)
system.cpu.commit.numCommittedDist::4          619868      5.69%     70.98% # Number of insts commited each cycle (Count)
system.cpu.commit.numCommittedDist::5          100953      0.93%     71.91% # Number of insts commited each cycle (Count)
system.cpu.commit.numCommittedDist::6           64059      0.59%     72.50% # Number of insts commited each cycle (Count)
system.cpu.commit.numCommittedDist::7          459138      4.22%     76.71% # Number of insts commited each cycle (Count)
system.cpu.commit.numCommittedDist::8         2535362     23.29%    100.00% # Number of insts commited each cycle (Count)
system.cpu.commit.numCommittedDist::overflows            0      0.00%    100.00% # Number of insts commited each cycle (Count)
system.cpu.commit.numCommittedDist::min_value            0                       # Number of insts commited each cycle (Count)
system.cpu.commit.numCommittedDist::max_value            8                       # Number of insts commited each cycle (Count)
system.cpu.commit.numCommittedDist::total     10887698                       # Number of insts commited each cycle (Count)
system.cpu.commit.instsCommitted             19928450                       # Number of instructions committed (Count)
system.cpu.commit.opsCommitted               35336477                       # Number of ops (including micro ops) committed (Count)
system.cpu.commit.memRefs                    12069539                       # Number of memory references committed (Count)
system.cpu.commit.loads                       7978510                       # Number of loads committed (Count)
system.cpu.commit.amos                              0                       # Number of atomic instructions committed (Count)
system.cpu.commit.membars                           0                       # Number of memory barriers committed (Count)
system.cpu.commit.branches                    3283692                       # Number of branches committed (Count)
system.cpu.commit.vectorInstructions                0                       # Number of committed Vector instructions. (Count)
system.cpu.commit.floating                    5154398                       # Number of committed floating point instructions. (Count)
system.cpu.commit.integer                    32657360                       # Number of committed integer instructions. (Count)
system.cpu.commit.functionCalls                563369                       # Number of function calls committed. (Count)
system.cpu.commit.committedInstType_0::No_OpClass       589130      1.67%      1.67% # Class of committed instruction (Count)
system.cpu.commit.committedInstType_0::IntAlu     20030633     56.69%     58.35% # Class of committed instruction (Count)
system.cpu.commit.committedInstType_0::IntMult       516165      1.46%     59.81% # Class of committed instruction (Count)
system.cpu.commit.committedInstType_0::IntDiv        53994      0.15%     59.97% # Class of committed instruction (Count)
system.cpu.commit.committedInstType_0::FloatAdd      1513865      4.28%     64.25% # Class of committed instruction (Count)
system.cpu.commit.committedInstType_0::FloatCmp            0      0.00%     64.25% # Class of committed instruction (Count)
system.cpu.commit.committedInstType_0::FloatCvt           32      0.00%     64.25% # Class of committed instruction (Count)
system.cpu.commit.committedInstType_0::FloatMult            0      0.00%     64.25% # Class of committed instruction (Count)
system.cpu.commit.committedInstType_0::FloatMultAcc            0      0.00%     64.25% # Class of committed instruction (Count)
system.cpu.commit.committedInstType_0::FloatDiv            0      0.00%     64.25% # Class of committed instruction (Count)
system.cpu.commit.committedInstType_0::FloatMisc            0      0.00%     64.25% # Class of committed instruction (Count)
system.cpu.commit.committedInstType_0::FloatSqrt            0      0.00%     64.25% # Class of committed instruction (Count)
system.cpu.commit.committedInstType_0::SimdAdd          326      0.00%     64.25% # Class of committed instruction (Count)
system.cpu.commit.committedInstType_0::SimdAddAcc            0      0.00%     64.25% # Class of committed instruction (Count)
system.cpu.commit.committedInstType_0::SimdAlu        18662      0.05%     64.30% # Class of committed instruction (Count)
system.cpu.commit.committedInstType_0::SimdCmp            6      0.00%     64.30% # Class of committed instruction (Count)
system.cpu.commit.committedInstType_0::SimdCvt        10720      0.03%     64.33% # Class of committed instruction (Count)
system.cpu.commit.committedInstType_0::SimdMisc        24821      0.07%     64.40% # Class of committed instruction (Count)
system.cpu.commit.committedInstType_0::SimdMult            0      0.00%     64.40% # Class of committed instruction (Count)
system.cpu.commit.committedInstType_0::SimdMultAcc            0      0.00%     64.40% # Class of committed instruction (Count)
system.cpu.commit.committedInstType_0::SimdShift           90      0.00%     64.40% # Class of committed instruction (Count)
system.cpu.commit.committedInstType_0::SimdShiftAcc            0      0.00%     64.40% # Class of committed instruction (Count)
system.cpu.commit.committedInstType_0::SimdDiv            0      0.00%     64.40% # Class of committed instruction (Count)
system.cpu.commit.committedInstType_0::SimdSqrt            0      0.00%     64.40% # Class of committed instruction (Count)
system.cpu.commit.committedInstType_0::SimdFloatAdd            0      0.00%     64.40% # Class of committed instruction (Count)
system.cpu.commit.committedInstType_0::SimdFloatAlu            0      0.00%     64.40% # Class of committed instruction (Count)
system.cpu.commit.committedInstType_0::SimdFloatCmp            0      0.00%     64.40% # Class of committed instruction (Count)
system.cpu.commit.committedInstType_0::SimdFloatCvt       508494      1.44%     65.84% # Class of committed instruction (Count)
system.cpu.commit.committedInstType_0::SimdFloatDiv            0      0.00%     65.84% # Class of committed instruction (Count)
system.cpu.commit.committedInstType_0::SimdFloatMisc            0      0.00%     65.84% # Class of committed instruction (Count)
system.cpu.commit.committedInstType_0::SimdFloatMult            0      0.00%     65.84% # Class of committed instruction (Count)
system.cpu.commit.committedInstType_0::SimdFloatMultAcc            0      0.00%     65.84% # Class of committed instruction (Count)
system.cpu.commit.committedInstType_0::SimdFloatSqrt            0      0.00%     65.84% # Class of committed instruction (Count)
system.cpu.commit.committedInstType_0::SimdReduceAdd            0      0.00%     65.84% # Class of committed instruction (Count)
system.cpu.commit.committedInstType_0::SimdReduceAlu            0      0.00%     65.84% # Class of committed instruction (Count)
system.cpu.commit.committedInstType_0::SimdReduceCmp            0      0.00%     65.84% # Class of committed instruction (Count)
system.cpu.commit.committedInstType_0::SimdFloatReduceAdd            0      0.00%     65.84% # Class of committed instruction (Count)
system.cpu.commit.committedInstType_0::SimdFloatReduceCmp            0      0.00%     65.84% # Class of committed instruction (Count)
system.cpu.commit.committedInstType_0::SimdAes            0      0.00%     65.84% # Class of committed instruction (Count)
system.cpu.commit.committedInstType_0::SimdAesMix            0      0.00%     65.84% # Class of committed instruction (Count)
system.cpu.commit.committedInstType_0::SimdSha1Hash            0      0.00%     65.84% # Class of committed instruction (Count)
system.cpu.commit.committedInstType_0::SimdSha1Hash2            0      0.00%     65.84% # Class of committed instruction (Count)
system.cpu.commit.committedInstType_0::SimdSha256Hash            0      0.00%     65.84% # Class of committed instruction (Count)
system.cpu.commit.committedInstType_0::SimdSha256Hash2            0      0.00%     65.84% # Class of committed instruction (Count)
system.cpu.commit.committedInstType_0::SimdShaSigma2            0      0.00%     65.84% # Class of committed instruction (Count)
system.cpu.commit.committedInstType_0::SimdShaSigma3            0      0.00%     65.84% # Class of committed instruction (Count)
system.cpu.commit.committedInstType_0::SimdPredAlu            0      0.00%     65.84% # Class of committed instruction (Count)
system.cpu.commit.committedInstType_0::MemRead      5941599     16.81%     82.66% # Class of committed instruction (Count)
system.cpu.commit.committedInstType_0::MemWrite      3058838      8.66%     91.31% # Class of committed instruction (Count)
system.cpu.commit.committedInstType_0::FloatMemRead      2036911      5.76%     97.08% # Class of committed instruction (Count)
system.cpu.commit.committedInstType_0::FloatMemWrite      1032191      2.92%    100.00% # Class of committed instruction (Count)
system.cpu.commit.committedInstType_0::IprAccess            0      0.00%    100.00% # Class of committed instruction (Count)
system.cpu.commit.committedInstType_0::InstPrefetch            0      0.00%    100.00% # Class of committed instruction (Count)
system.cpu.commit.committedInstType_0::total     35336477                       # Class of committed instruction (Count)
system.cpu.commit.commitEligibleSamples       2535362                       # number cycles where commit BW limit reached (Cycle)
system.cpu.dcache.demandHits::cpu.data        8024959                       # number of demand (read+write) hits (Count)
system.cpu.dcache.demandHits::total           8024959                       # number of demand (read+write) hits (Count)
system.cpu.dcache.overallHits::cpu.data       8024959                       # number of overall hits (Count)
system.cpu.dcache.overallHits::total          8024959                       # number of overall hits (Count)
system.cpu.dcache.demandMisses::cpu.data        27224                       # number of demand (read+write) misses (Count)
system.cpu.dcache.demandMisses::total           27224                       # number of demand (read+write) misses (Count)
system.cpu.dcache.overallMisses::cpu.data        27224                       # number of overall misses (Count)
system.cpu.dcache.overallMisses::total          27224                       # number of overall misses (Count)
system.cpu.dcache.demandMissLatency::cpu.data   1175616500                       # number of demand (read+write) miss ticks (Tick)
system.cpu.dcache.demandMissLatency::total   1175616500                       # number of demand (read+write) miss ticks (Tick)
system.cpu.dcache.overallMissLatency::cpu.data   1175616500                       # number of overall miss ticks (Tick)
system.cpu.dcache.overallMissLatency::total   1175616500                       # number of overall miss ticks (Tick)
system.cpu.dcache.demandAccesses::cpu.data      8052183                       # number of demand (read+write) accesses (Count)
system.cpu.dcache.demandAccesses::total       8052183                       # number of demand (read+write) accesses (Count)
system.cpu.dcache.overallAccesses::cpu.data      8052183                       # number of overall (read+write) accesses (Count)
system.cpu.dcache.overallAccesses::total      8052183                       # number of overall (read+write) accesses (Count)
system.cpu.dcache.demandMissRate::cpu.data     0.003381                       # miss rate for demand accesses (Ratio)
system.cpu.dcache.demandMissRate::total      0.003381                       # miss rate for demand accesses (Ratio)
system.cpu.dcache.overallMissRate::cpu.data     0.003381                       # miss rate for overall accesses (Ratio)
system.cpu.dcache.overallMissRate::total     0.003381                       # miss rate for overall accesses (Ratio)
system.cpu.dcache.demandAvgMissLatency::cpu.data 43183.092125                       # average overall miss latency ((Cycle/Count))
system.cpu.dcache.demandAvgMissLatency::total 43183.092125                       # average overall miss latency ((Cycle/Count))
system.cpu.dcache.overallAvgMissLatency::cpu.data 43183.092125                       # average overall miss latency ((Cycle/Count))
system.cpu.dcache.overallAvgMissLatency::total 43183.092125                       # average overall miss latency ((Cycle/Count))
system.cpu.dcache.blockedCycles::no_mshrs        16625                       # number of cycles access was blocked (Cycle)
system.cpu.dcache.blockedCycles::no_targets            0                       # number of cycles access was blocked (Cycle)
system.cpu.dcache.blockedCauses::no_mshrs          305                       # number of times access was blocked (Count)
system.cpu.dcache.blockedCauses::no_targets            0                       # number of times access was blocked (Count)
system.cpu.dcache.avgBlocked::no_mshrs      54.508197                       # average number of cycles each access was blocked ((Cycle/Count))
system.cpu.dcache.avgBlocked::no_targets          nan                       # average number of cycles each access was blocked ((Cycle/Count))
system.cpu.dcache.writebacks::writebacks         5674                       # number of writebacks (Count)
system.cpu.dcache.writebacks::total              5674                       # number of writebacks (Count)
system.cpu.dcache.demandMshrHits::cpu.data        18726                       # number of demand (read+write) MSHR hits (Count)
system.cpu.dcache.demandMshrHits::total         18726                       # number of demand (read+write) MSHR hits (Count)
system.cpu.dcache.overallMshrHits::cpu.data        18726                       # number of overall MSHR hits (Count)
system.cpu.dcache.overallMshrHits::total        18726                       # number of overall MSHR hits (Count)
system.cpu.dcache.demandMshrMisses::cpu.data         8498                       # number of demand (read+write) MSHR misses (Count)
system.cpu.dcache.demandMshrMisses::total         8498                       # number of demand (read+write) MSHR misses (Count)
system.cpu.dcache.overallMshrMisses::cpu.data         8498                       # number of overall MSHR misses (Count)
system.cpu.dcache.overallMshrMisses::total         8498                       # number of overall MSHR misses (Count)
system.cpu.dcache.demandMshrMissLatency::cpu.data    485975500                       # number of demand (read+write) MSHR miss ticks (Tick)
system.cpu.dcache.demandMshrMissLatency::total    485975500                       # number of demand (read+write) MSHR miss ticks (Tick)
system.cpu.dcache.overallMshrMissLatency::cpu.data    485975500                       # number of overall MSHR miss ticks (Tick)
system.cpu.dcache.overallMshrMissLatency::total    485975500                       # number of overall MSHR miss ticks (Tick)
system.cpu.dcache.demandMshrMissRate::cpu.data     0.001055                       # mshr miss ratio for demand accesses (Ratio)
system.cpu.dcache.demandMshrMissRate::total     0.001055                       # mshr miss ratio for demand accesses (Ratio)
system.cpu.dcache.overallMshrMissRate::cpu.data     0.001055                       # mshr miss ratio for overall accesses (Ratio)
system.cpu.dcache.overallMshrMissRate::total     0.001055                       # mshr miss ratio for overall accesses (Ratio)
system.cpu.dcache.demandAvgMshrMissLatency::cpu.data 57187.044010                       # average overall mshr miss latency ((Cycle/Count))
system.cpu.dcache.demandAvgMshrMissLatency::total 57187.044010                       # average overall mshr miss latency ((Cycle/Count))
system.cpu.dcache.overallAvgMshrMissLatency::cpu.data 57187.044010                       # average overall mshr miss latency ((Cycle/Count))
system.cpu.dcache.overallAvgMshrMissLatency::total 57187.044010                       # average overall mshr miss latency ((Cycle/Count))
system.cpu.dcache.replacements                   7473                       # number of replacements (Count)
system.cpu.dcache.ReadReq.hits::cpu.data      3936642                       # number of ReadReq hits (Count)
system.cpu.dcache.ReadReq.hits::total         3936642                       # number of ReadReq hits (Count)
system.cpu.dcache.ReadReq.misses::cpu.data        24512                       # number of ReadReq misses (Count)
system.cpu.dcache.ReadReq.misses::total         24512                       # number of ReadReq misses (Count)
system.cpu.dcache.ReadReq.missLatency::cpu.data   1042316000                       # number of ReadReq miss ticks (Tick)
system.cpu.dcache.ReadReq.missLatency::total   1042316000                       # number of ReadReq miss ticks (Tick)
system.cpu.dcache.ReadReq.accesses::cpu.data      3961154                       # number of ReadReq accesses(hits+misses) (Count)
system.cpu.dcache.ReadReq.accesses::total      3961154                       # number of ReadReq accesses(hits+misses) (Count)
system.cpu.dcache.ReadReq.missRate::cpu.data     0.006188                       # miss rate for ReadReq accesses (Ratio)
system.cpu.dcache.ReadReq.missRate::total     0.006188                       # miss rate for ReadReq accesses (Ratio)
system.cpu.dcache.ReadReq.avgMissLatency::cpu.data 42522.682768                       # average ReadReq miss latency ((Tick/Count))
system.cpu.dcache.ReadReq.avgMissLatency::total 42522.682768                       # average ReadReq miss latency ((Tick/Count))
system.cpu.dcache.ReadReq.mshrHits::cpu.data        17747                       # number of ReadReq MSHR hits (Count)
system.cpu.dcache.ReadReq.mshrHits::total        17747                       # number of ReadReq MSHR hits (Count)
system.cpu.dcache.ReadReq.mshrMisses::cpu.data         6765                       # number of ReadReq MSHR misses (Count)
system.cpu.dcache.ReadReq.mshrMisses::total         6765                       # number of ReadReq MSHR misses (Count)
system.cpu.dcache.ReadReq.mshrMissLatency::cpu.data    361065500                       # number of ReadReq MSHR miss ticks (Tick)
system.cpu.dcache.ReadReq.mshrMissLatency::total    361065500                       # number of ReadReq MSHR miss ticks (Tick)
system.cpu.dcache.ReadReq.mshrMissRate::cpu.data     0.001708                       # mshr miss rate for ReadReq accesses (Ratio)
system.cpu.dcache.ReadReq.mshrMissRate::total     0.001708                       # mshr miss rate for ReadReq accesses (Ratio)
system.cpu.dcache.ReadReq.avgMshrMissLatency::cpu.data 53372.579453                       # average ReadReq mshr miss latency ((Tick/Count))
system.cpu.dcache.ReadReq.avgMshrMissLatency::total 53372.579453                       # average ReadReq mshr miss latency ((Tick/Count))
system.cpu.dcache.WriteReq.hits::cpu.data      4088317                       # number of WriteReq hits (Count)
system.cpu.dcache.WriteReq.hits::total        4088317                       # number of WriteReq hits (Count)
system.cpu.dcache.WriteReq.misses::cpu.data         2712                       # number of WriteReq misses (Count)
system.cpu.dcache.WriteReq.misses::total         2712                       # number of WriteReq misses (Count)
system.cpu.dcache.WriteReq.missLatency::cpu.data    133300500                       # number of WriteReq miss ticks (Tick)
system.cpu.dcache.WriteReq.missLatency::total    133300500                       # number of WriteReq miss ticks (Tick)
system.cpu.dcache.WriteReq.accesses::cpu.data      4091029                       # number of WriteReq accesses(hits+misses) (Count)
system.cpu.dcache.WriteReq.accesses::total      4091029                       # number of WriteReq accesses(hits+misses) (Count)
system.cpu.dcache.WriteReq.missRate::cpu.data     0.000663                       # miss rate for WriteReq accesses (Ratio)
system.cpu.dcache.WriteReq.missRate::total     0.000663                       # miss rate for WriteReq accesses (Ratio)
system.cpu.dcache.WriteReq.avgMissLatency::cpu.data 49152.101770                       # average WriteReq miss latency ((Tick/Count))
system.cpu.dcache.WriteReq.avgMissLatency::total 49152.101770                       # average WriteReq miss latency ((Tick/Count))
system.cpu.dcache.WriteReq.mshrHits::cpu.data          979                       # number of WriteReq MSHR hits (Count)
system.cpu.dcache.WriteReq.mshrHits::total          979                       # number of WriteReq MSHR hits (Count)
system.cpu.dcache.WriteReq.mshrMisses::cpu.data         1733                       # number of WriteReq MSHR misses (Count)
system.cpu.dcache.WriteReq.mshrMisses::total         1733                       # number of WriteReq MSHR misses (Count)
system.cpu.dcache.WriteReq.mshrMissLatency::cpu.data    124910000                       # number of WriteReq MSHR miss ticks (Tick)
system.cpu.dcache.WriteReq.mshrMissLatency::total    124910000                       # number of WriteReq MSHR miss ticks (Tick)
system.cpu.dcache.WriteReq.mshrMissRate::cpu.data     0.000424                       # mshr miss rate for WriteReq accesses (Ratio)
system.cpu.dcache.WriteReq.mshrMissRate::total     0.000424                       # mshr miss rate for WriteReq accesses (Ratio)
system.cpu.dcache.WriteReq.avgMshrMissLatency::cpu.data 72077.322562                       # average WriteReq mshr miss latency ((Tick/Count))
system.cpu.dcache.WriteReq.avgMshrMissLatency::total 72077.322562                       # average WriteReq mshr miss latency ((Tick/Count))
system.cpu.dcache.power_state.pwrStateResidencyTicks::UNDEFINED   5600161500                       # Cumulative time (in ticks) in various power states (Tick)
system.cpu.dcache.tags.tagsInUse          1012.138325                       # Average ticks per tags in use ((Tick/Count))
system.cpu.dcache.tags.totalRefs              8033457                       # Total number of references to valid blocks. (Count)
system.cpu.dcache.tags.sampledRefs               8497                       # Sample count of references to valid blocks. (Count)
system.cpu.dcache.tags.avgRefs             945.446275                       # Average number of references to valid blocks. ((Count/Count))
system.cpu.dcache.tags.warmupTick              168000                       # The tick when the warmup percentage was hit. (Tick)
system.cpu.dcache.tags.occupancies::cpu.data  1012.138325                       # Average occupied blocks per tick, per requestor ((Count/Tick))
system.cpu.dcache.tags.avgOccs::cpu.data     0.988416                       # Average percentage of cache occupancy ((Ratio/Tick))
system.cpu.dcache.tags.avgOccs::total        0.988416                       # Average percentage of cache occupancy ((Ratio/Tick))
system.cpu.dcache.tags.occupanciesTaskId::1024         1024                       # Occupied blocks per task id (Count)
system.cpu.dcache.tags.ageTaskId_1024::0           49                       # Occupied blocks per task id, per block age (Count)
system.cpu.dcache.tags.ageTaskId_1024::1           10                       # Occupied blocks per task id, per block age (Count)
system.cpu.dcache.tags.ageTaskId_1024::2          101                       # Occupied blocks per task id, per block age (Count)
system.cpu.dcache.tags.ageTaskId_1024::3          864                       # Occupied blocks per task id, per block age (Count)
system.cpu.dcache.tags.ratioOccsTaskId::1024            1                       # Ratio of occupied blocks and all blocks, per task id (Ratio)
system.cpu.dcache.tags.tagAccesses           16112863                       # Number of tag accesses (Count)
system.cpu.dcache.tags.dataAccesses          16112863                       # Number of data accesses (Count)
system.cpu.dcache.tags.power_state.pwrStateResidencyTicks::UNDEFINED   5600161500                       # Cumulative time (in ticks) in various power states (Tick)
system.cpu.decode.idleCycles                  3927931                       # Number of cycles decode is idle (Cycle)
system.cpu.decode.blockedCycles                618200                       # Number of cycles decode is blocked (Cycle)
system.cpu.decode.runCycles                   6417522                       # Number of cycles decode is running (Cycle)
system.cpu.decode.unblockCycles                 81556                       # Number of cycles decode is unblocking (Cycle)
system.cpu.decode.squashCycles                  47924                       # Number of cycles decode is squashing (Cycle)
system.cpu.decode.branchResolved              1431094                       # Number of times decode resolved a branch (Count)
system.cpu.decode.branchMispred                  2619                       # Number of times decode detected a branch misprediction (Count)
system.cpu.decode.decodedInsts               37332013                       # Number of instructions handled by decode (Count)
system.cpu.decode.squashedInsts                  3858                       # Number of squashed instructions handled by decode (Count)
system.cpu.fetch.icacheStallCycles            4011258                       # Number of cycles fetch is stalled on an Icache miss (Cycle)
system.cpu.fetch.insts                       21100422                       # Number of instructions fetch has processed (Count)
system.cpu.fetch.branches                     3550126                       # Number of branches that fetch encountered (Count)
system.cpu.fetch.predictedBranches            2565914                       # Number of branches that fetch has predicted taken (Count)
system.cpu.fetch.cycles                       7015134                       # Number of cycles fetch has run and was not squashing or blocked (Cycle)
system.cpu.fetch.squashCycles                  101060                       # Number of cycles fetch has spent squashing (Cycle)
system.cpu.fetch.miscStallCycles                 2245                       # Number of cycles fetch has spent waiting on interrupts, or bad addresses, or out of MSHRs (Cycle)
system.cpu.fetch.pendingTrapStallCycles         13836                       # Number of stall cycles due to pending traps (Cycle)
system.cpu.fetch.pendingQuiesceStallCycles          116                       # Number of stall cycles due to pending quiesce instructions (Cycle)
system.cpu.fetch.icacheWaitRetryStallCycles           14                       # Number of stall cycles due to full MSHR (Cycle)
system.cpu.fetch.cacheLines                   3813878                       # Number of cache lines fetched (Count)
system.cpu.fetch.icacheSquashes                 16598                       # Number of outstanding Icache misses that were squashed (Count)
system.cpu.fetch.nisnDist::samples           11093133                       # Number of instructions fetched each cycle (Total) (Count)
system.cpu.fetch.nisnDist::mean              3.388841                       # Number of instructions fetched each cycle (Total) (Count)
system.cpu.fetch.nisnDist::stdev             3.479830                       # Number of instructions fetched each cycle (Total) (Count)
system.cpu.fetch.nisnDist::underflows               0      0.00%      0.00% # Number of instructions fetched each cycle (Total) (Count)
system.cpu.fetch.nisnDist::0                  4485276     40.43%     40.43% # Number of instructions fetched each cycle (Total) (Count)
system.cpu.fetch.nisnDist::1                  1096968      9.89%     50.32% # Number of instructions fetched each cycle (Total) (Count)
system.cpu.fetch.nisnDist::2                   108477      0.98%     51.30% # Number of instructions fetched each cycle (Total) (Count)
system.cpu.fetch.nisnDist::3                   154331      1.39%     52.69% # Number of instructions fetched each cycle (Total) (Count)
system.cpu.fetch.nisnDist::4                  1130964     10.20%     62.89% # Number of instructions fetched each cycle (Total) (Count)
system.cpu.fetch.nisnDist::5                   116314      1.05%     63.93% # Number of instructions fetched each cycle (Total) (Count)
system.cpu.fetch.nisnDist::6                   594683      5.36%     69.30% # Number of instructions fetched each cycle (Total) (Count)
system.cpu.fetch.nisnDist::7                   106537      0.96%     70.26% # Number of instructions fetched each cycle (Total) (Count)
system.cpu.fetch.nisnDist::8                  3299583     29.74%    100.00% # Number of instructions fetched each cycle (Total) (Count)
system.cpu.fetch.nisnDist::overflows                0      0.00%    100.00% # Number of instructions fetched each cycle (Total) (Count)
system.cpu.fetch.nisnDist::min_value                0                       # Number of instructions fetched each cycle (Total) (Count)
system.cpu.fetch.nisnDist::max_value                8                       # Number of instructions fetched each cycle (Total) (Count)
system.cpu.fetch.nisnDist::total             11093133                       # Number of instructions fetched each cycle (Total) (Count)
system.cpu.fetch.branchRate                  0.316966                       # Number of branch fetches per cycle (Ratio)
system.cpu.fetch.rate                        1.883912                       # Number of inst fetches per cycle ((Count/Cycle))
system.cpu.icache.demandHits::cpu.inst        3805147                       # number of demand (read+write) hits (Count)
system.cpu.icache.demandHits::total           3805147                       # number of demand (read+write) hits (Count)
system.cpu.icache.overallHits::cpu.inst       3805147                       # number of overall hits (Count)
system.cpu.icache.overallHits::total          3805147                       # number of overall hits (Count)
system.cpu.icache.demandMisses::cpu.inst         8731                       # number of demand (read+write) misses (Count)
system.cpu.icache.demandMisses::total            8731                       # number of demand (read+write) misses (Count)
system.cpu.icache.overallMisses::cpu.inst         8731                       # number of overall misses (Count)
system.cpu.icache.overallMisses::total           8731                       # number of overall misses (Count)
system.cpu.icache.demandMissLatency::cpu.inst    214361500                       # number of demand (read+write) miss ticks (Tick)
system.cpu.icache.demandMissLatency::total    214361500                       # number of demand (read+write) miss ticks (Tick)
system.cpu.icache.overallMissLatency::cpu.inst    214361500                       # number of overall miss ticks (Tick)
system.cpu.icache.overallMissLatency::total    214361500                       # number of overall miss ticks (Tick)
system.cpu.icache.demandAccesses::cpu.inst      3813878                       # number of demand (read+write) accesses (Count)
system.cpu.icache.demandAccesses::total       3813878                       # number of demand (read+write) accesses (Count)
system.cpu.icache.overallAccesses::cpu.inst      3813878                       # number of overall (read+write) accesses (Count)
system.cpu.icache.overallAccesses::total      3813878                       # number of overall (read+write) accesses (Count)
system.cpu.icache.demandMissRate::cpu.inst     0.002289                       # miss rate for demand accesses (Ratio)
system.cpu.icache.demandMissRate::total      0.002289                       # miss rate for demand accesses (Ratio)
system.cpu.icache.overallMissRate::cpu.inst     0.002289                       # miss rate for overall accesses (Ratio)
system.cpu.icache.overallMissRate::total     0.002289                       # miss rate for overall accesses (Ratio)
system.cpu.icache.demandAvgMissLatency::cpu.inst 24551.769557                       # average overall miss latency ((Cycle/Count))
system.cpu.icache.demandAvgMissLatency::total 24551.769557                       # average overall miss latency ((Cycle/Count))
system.cpu.icache.overallAvgMissLatency::cpu.inst 24551.769557                       # average overall miss latency ((Cycle/Count))
system.cpu.icache.overallAvgMissLatency::total 24551.769557                       # average overall miss latency ((Cycle/Count))
system.cpu.icache.blockedCycles::no_mshrs          204                       # number of cycles access was blocked (Cycle)
system.cpu.icache.blockedCycles::no_targets            0                       # number of cycles access was blocked (Cycle)
system.cpu.icache.blockedCauses::no_mshrs            4                       # number of times access was blocked (Count)
system.cpu.icache.blockedCauses::no_targets            0                       # number of times access was blocked (Count)
system.cpu.icache.avgBlocked::no_mshrs             51                       # average number of cycles each access was blocked ((Cycle/Count))
system.cpu.icache.avgBlocked::no_targets          nan                       # average number of cycles each access was blocked ((Cycle/Count))
system.cpu.icache.demandMshrHits::cpu.inst         1360                       # number of demand (read+write) MSHR hits (Count)
system.cpu.icache.demandMshrHits::total          1360                       # number of demand (read+write) MSHR hits (Count)
system.cpu.icache.overallMshrHits::cpu.inst         1360                       # number of overall MSHR hits (Count)
system.cpu.icache.overallMshrHits::total         1360                       # number of overall MSHR hits (Count)
system.cpu.icache.demandMshrMisses::cpu.inst         7371                       # number of demand (read+write) MSHR misses (Count)
system.cpu.icache.demandMshrMisses::total         7371                       # number of demand (read+write) MSHR misses (Count)
system.cpu.icache.overallMshrMisses::cpu.inst         7371                       # number of overall MSHR misses (Count)
system.cpu.icache.overallMshrMisses::total         7371                       # number of overall MSHR misses (Count)
system.cpu.icache.demandMshrMissLatency::cpu.inst    173669000                       # number of demand (read+write) MSHR miss ticks (Tick)
system.cpu.icache.demandMshrMissLatency::total    173669000                       # number of demand (read+write) MSHR miss ticks (Tick)
system.cpu.icache.overallMshrMissLatency::cpu.inst    173669000                       # number of overall MSHR miss ticks (Tick)
system.cpu.icache.overallMshrMissLatency::total    173669000                       # number of overall MSHR miss ticks (Tick)
system.cpu.icache.demandMshrMissRate::cpu.inst     0.001933                       # mshr miss ratio for demand accesses (Ratio)
system.cpu.icache.demandMshrMissRate::total     0.001933                       # mshr miss ratio for demand accesses (Ratio)
system.cpu.icache.overallMshrMissRate::cpu.inst     0.001933                       # mshr miss ratio for overall accesses (Ratio)
system.cpu.icache.overallMshrMissRate::total     0.001933                       # mshr miss ratio for overall accesses (Ratio)
system.cpu.icache.demandAvgMshrMissLatency::cpu.inst 23561.117894                       # average overall mshr miss latency ((Cycle/Count))
system.cpu.icache.demandAvgMshrMissLatency::total 23561.117894                       # average overall mshr miss latency ((Cycle/Count))
system.cpu.icache.overallAvgMshrMissLatency::cpu.inst 23561.117894                       # average overall mshr miss latency ((Cycle/Count))
system.cpu.icache.overallAvgMshrMissLatency::total 23561.117894                       # average overall mshr miss latency ((Cycle/Count))
system.cpu.icache.replacements                   6858                       # number of replacements (Count)
system.cpu.icache.ReadReq.hits::cpu.inst      3805147                       # number of ReadReq hits (Count)
system.cpu.icache.ReadReq.hits::total         3805147                       # number of ReadReq hits (Count)
system.cpu.icache.ReadReq.misses::cpu.inst         8731                       # number of ReadReq misses (Count)
system.cpu.icache.ReadReq.misses::total          8731                       # number of ReadReq misses (Count)
system.cpu.icache.ReadReq.missLatency::cpu.inst    214361500                       # number of ReadReq miss ticks (Tick)
system.cpu.icache.ReadReq.missLatency::total    214361500                       # number of ReadReq miss ticks (Tick)
system.cpu.icache.ReadReq.accesses::cpu.inst      3813878                       # number of ReadReq accesses(hits+misses) (Count)
system.cpu.icache.ReadReq.accesses::total      3813878                       # number of ReadReq accesses(hits+misses) (Count)
system.cpu.icache.ReadReq.missRate::cpu.inst     0.002289                       # miss rate for ReadReq accesses (Ratio)
system.cpu.icache.ReadReq.missRate::total     0.002289                       # miss rate for ReadReq accesses (Ratio)
system.cpu.icache.ReadReq.avgMissLatency::cpu.inst 24551.769557                       # average ReadReq miss latency ((Tick/Count))
system.cpu.icache.ReadReq.avgMissLatency::total 24551.769557                       # average ReadReq miss latency ((Tick/Count))
system.cpu.icache.ReadReq.mshrHits::cpu.inst         1360                       # number of ReadReq MSHR hits (Count)
system.cpu.icache.ReadReq.mshrHits::total         1360                       # number of ReadReq MSHR hits (Count)
system.cpu.icache.ReadReq.mshrMisses::cpu.inst         7371                       # number of ReadReq MSHR misses (Count)
system.cpu.icache.ReadReq.mshrMisses::total         7371                       # number of ReadReq MSHR misses (Count)
system.cpu.icache.ReadReq.mshrMissLatency::cpu.inst    173669000                       # number of ReadReq MSHR miss ticks (Tick)
system.cpu.icache.ReadReq.mshrMissLatency::total    173669000                       # number of ReadReq MSHR miss ticks (Tick)
system.cpu.icache.ReadReq.mshrMissRate::cpu.inst     0.001933                       # mshr miss rate for ReadReq accesses (Ratio)
system.cpu.icache.ReadReq.mshrMissRate::total     0.001933                       # mshr miss rate for ReadReq accesses (Ratio)
system.cpu.icache.ReadReq.avgMshrMissLatency::cpu.inst 23561.117894                       # average ReadReq mshr miss latency ((Tick/Count))
system.cpu.icache.ReadReq.avgMshrMissLatency::total 23561.117894                       # average ReadReq mshr miss latency ((Tick/Count))
system.cpu.icache.power_state.pwrStateResidencyTicks::UNDEFINED   5600161500                       # Cumulative time (in ticks) in various power states (Tick)
system.cpu.icache.tags.tagsInUse           480.656398                       # Average ticks per tags in use ((Tick/Count))
system.cpu.icache.tags.totalRefs              3812517                       # Total number of references to valid blocks. (Count)
system.cpu.icache.tags.sampledRefs               7370                       # Sample count of references to valid blocks. (Count)
system.cpu.icache.tags.avgRefs             517.302171                       # Average number of references to valid blocks. ((Count/Count))
system.cpu.icache.tags.warmupTick               82000                       # The tick when the warmup percentage was hit. (Tick)
system.cpu.icache.tags.occupancies::cpu.inst   480.656398                       # Average occupied blocks per tick, per requestor ((Count/Tick))
system.cpu.icache.tags.avgOccs::cpu.inst     0.938782                       # Average percentage of cache occupancy ((Ratio/Tick))
system.cpu.icache.tags.avgOccs::total        0.938782                       # Average percentage of cache occupancy ((Ratio/Tick))
system.cpu.icache.tags.occupanciesTaskId::1024          511                       # Occupied blocks per task id (Count)
system.cpu.icache.tags.ageTaskId_1024::0          104                       # Occupied blocks per task id, per block age (Count)
system.cpu.icache.tags.ageTaskId_1024::3          407                       # Occupied blocks per task id, per block age (Count)
system.cpu.icache.tags.ratioOccsTaskId::1024     0.998047                       # Ratio of occupied blocks and all blocks, per task id (Ratio)
system.cpu.icache.tags.tagAccesses            7635126                       # Number of tag accesses (Count)
system.cpu.icache.tags.dataAccesses           7635126                       # Number of data accesses (Count)
system.cpu.icache.tags.power_state.pwrStateResidencyTicks::UNDEFINED   5600161500                       # Cumulative time (in ticks) in various power states (Tick)
system.cpu.iew.idleCycles                           0                       # Number of cycles IEW is idle (Cycle)
system.cpu.iew.squashCycles                     47924                       # Number of cycles IEW is squashing (Cycle)
system.cpu.iew.blockCycles                     245945                       # Number of cycles IEW is blocking (Cycle)
system.cpu.iew.unblockCycles                    26190                       # Number of cycles IEW is unblocking (Cycle)
system.cpu.iew.dispatchedInsts               36811947                       # Number of instructions dispatched to IQ (Count)
system.cpu.iew.dispSquashedInsts                23577                       # Number of squashed instructions skipped by dispatch (Count)
system.cpu.iew.dispLoadInsts                  8209131                       # Number of dispatched load instructions (Count)
system.cpu.iew.dispStoreInsts                 4186638                       # Number of dispatched store instructions (Count)
system.cpu.iew.dispNonSpecInsts                    34                       # Number of dispatched non-speculative instructions (Count)
system.cpu.iew.iqFullEvents                      2250                       # Number of times the IQ has become full, causing a stall (Count)
system.cpu.iew.lsqFullEvents                    23514                       # Number of times the LSQ has become full, causing a stall (Count)
system.cpu.iew.memOrderViolationEvents            515                       # Number of memory order violations (Count)
system.cpu.iew.predictedTakenIncorrect          19358                       # Number of branches that were predicted taken incorrectly (Count)
system.cpu.iew.predictedNotTakenIncorrect        33418                       # Number of branches that were predicted not taken incorrectly (Count)
system.cpu.iew.branchMispredicts                52776                       # Number of branch mispredicts detected at execute (Count)
system.cpu.iew.instsToCommit                 36271440                       # Cumulative count of insts sent to commit (Count)
system.cpu.iew.writebackCount                36251636                       # Cumulative count of insts written-back (Count)
system.cpu.iew.producerInst                  23230508                       # Number of instructions producing a value (Count)
system.cpu.iew.consumerInst                  30926684                       # Number of instructions consuming a value (Count)
system.cpu.iew.wbRate                        3.236660                       # Insts written-back per cycle ((Count/Cycle))
system.cpu.iew.wbFanout                      0.751148                       # Average fanout of values written-back ((Count/Count))
system.cpu.interrupts.clk_domain.clock           8000                       # Clock period in ticks (Tick)
system.cpu.l2cache.demandHits::cpu.inst          6035                       # number of demand (read+write) hits (Count)
system.cpu.l2cache.demandHits::cpu.data          2541                       # number of demand (read+write) hits (Count)
system.cpu.l2cache.demandHits::total             8576                       # number of demand (read+write) hits (Count)
system.cpu.l2cache.overallHits::cpu.inst         6035                       # number of overall hits (Count)
system.cpu.l2cache.overallHits::cpu.data         2541                       # number of overall hits (Count)
system.cpu.l2cache.overallHits::total            8576                       # number of overall hits (Count)
system.cpu.l2cache.demandMisses::cpu.inst         1335                       # number of demand (read+write) misses (Count)
system.cpu.l2cache.demandMisses::cpu.data         5956                       # number of demand (read+write) misses (Count)
system.cpu.l2cache.demandMisses::total           7291                       # number of demand (read+write) misses (Count)
system.cpu.l2cache.overallMisses::cpu.inst         1335                       # number of overall misses (Count)
system.cpu.l2cache.overallMisses::cpu.data         5956                       # number of overall misses (Count)
system.cpu.l2cache.overallMisses::total          7291                       # number of overall misses (Count)
system.cpu.l2cache.demandMissLatency::cpu.inst     99232000                       # number of demand (read+write) miss ticks (Tick)
system.cpu.l2cache.demandMissLatency::cpu.data    446457500                       # number of demand (read+write) miss ticks (Tick)
system.cpu.l2cache.demandMissLatency::total    545689500                       # number of demand (read+write) miss ticks (Tick)
system.cpu.l2cache.overallMissLatency::cpu.inst     99232000                       # number of overall miss ticks (Tick)
system.cpu.l2cache.overallMissLatency::cpu.data    446457500                       # number of overall miss ticks (Tick)
system.cpu.l2cache.overallMissLatency::total    545689500                       # number of overall miss ticks (Tick)
system.cpu.l2cache.demandAccesses::cpu.inst         7370                       # number of demand (read+write) accesses (Count)
system.cpu.l2cache.demandAccesses::cpu.data         8497                       # number of demand (read+write) accesses (Count)
system.cpu.l2cache.demandAccesses::total        15867                       # number of demand (read+write) accesses (Count)
system.cpu.l2cache.overallAccesses::cpu.inst         7370                       # number of overall (read+write) accesses (Count)
system.cpu.l2cache.overallAccesses::cpu.data         8497                       # number of overall (read+write) accesses (Count)
system.cpu.l2cache.overallAccesses::total        15867                       # number of overall (read+write) accesses (Count)
system.cpu.l2cache.demandMissRate::cpu.inst     0.181140                       # miss rate for demand accesses (Ratio)
system.cpu.l2cache.demandMissRate::cpu.data     0.700953                       # miss rate for demand accesses (Ratio)
system.cpu.l2cache.demandMissRate::total     0.459507                       # miss rate for demand accesses (Ratio)
system.cpu.l2cache.overallMissRate::cpu.inst     0.181140                       # miss rate for overall accesses (Ratio)
system.cpu.l2cache.overallMissRate::cpu.data     0.700953                       # miss rate for overall accesses (Ratio)
system.cpu.l2cache.overallMissRate::total     0.459507                       # miss rate for overall accesses (Ratio)
system.cpu.l2cache.demandAvgMissLatency::cpu.inst 74331.086142                       # average overall miss latency ((Cycle/Count))
system.cpu.l2cache.demandAvgMissLatency::cpu.data 74959.284755                       # average overall miss latency ((Cycle/Count))
system.cpu.l2cache.demandAvgMissLatency::total 74844.260047                       # average overall miss latency ((Cycle/Count))
system.cpu.l2cache.overallAvgMissLatency::cpu.inst 74331.086142                       # average overall miss latency ((Cycle/Count))
system.cpu.l2cache.overallAvgMissLatency::cpu.data 74959.284755                       # average overall miss latency ((Cycle/Count))
system.cpu.l2cache.overallAvgMissLatency::total 74844.260047                       # average overall miss latency ((Cycle/Count))
system.cpu.l2cache.blockedCycles::no_mshrs            0                       # number of cycles access was blocked (Cycle)
system.cpu.l2cache.blockedCycles::no_targets            0                       # number of cycles access was blocked (Cycle)
system.cpu.l2cache.blockedCauses::no_mshrs            0                       # number of times access was blocked (Count)
system.cpu.l2cache.blockedCauses::no_targets            0                       # number of times access was blocked (Count)
system.cpu.l2cache.avgBlocked::no_mshrs           nan                       # average number of cycles each access was blocked ((Cycle/Count))
system.cpu.l2cache.avgBlocked::no_targets          nan                       # average number of cycles each access was blocked ((Cycle/Count))
system.cpu.l2cache.writebacks::writebacks         1405                       # number of writebacks (Count)
system.cpu.l2cache.writebacks::total             1405                       # number of writebacks (Count)
system.cpu.l2cache.demandMshrMisses::cpu.inst         1335                       # number of demand (read+write) MSHR misses (Count)
system.cpu.l2cache.demandMshrMisses::cpu.data         5956                       # number of demand (read+write) MSHR misses (Count)
system.cpu.l2cache.demandMshrMisses::total         7291                       # number of demand (read+write) MSHR misses (Count)
system.cpu.l2cache.overallMshrMisses::cpu.inst         1335                       # number of overall MSHR misses (Count)
system.cpu.l2cache.overallMshrMisses::cpu.data         5956                       # number of overall MSHR misses (Count)
system.cpu.l2cache.overallMshrMisses::total         7291                       # number of overall MSHR misses (Count)
system.cpu.l2cache.demandMshrMissLatency::cpu.inst     85892000                       # number of demand (read+write) MSHR miss ticks (Tick)
system.cpu.l2cache.demandMshrMissLatency::cpu.data    386897500                       # number of demand (read+write) MSHR miss ticks (Tick)
system.cpu.l2cache.demandMshrMissLatency::total    472789500                       # number of demand (read+write) MSHR miss ticks (Tick)
system.cpu.l2cache.overallMshrMissLatency::cpu.inst     85892000                       # number of overall MSHR miss ticks (Tick)
system.cpu.l2cache.overallMshrMissLatency::cpu.data    386897500                       # number of overall MSHR miss ticks (Tick)
system.cpu.l2cache.overallMshrMissLatency::total    472789500                       # number of overall MSHR miss ticks (Tick)
system.cpu.l2cache.demandMshrMissRate::cpu.inst     0.181140                       # mshr miss ratio for demand accesses (Ratio)
system.cpu.l2cache.demandMshrMissRate::cpu.data     0.700953                       # mshr miss ratio for demand accesses (Ratio)
[...]
system.mem_ctrl.dram.bytesWritten::total        89920                       # Number of bytes written to this memory (Byte)
system.mem_ctrl.dram.numReads::cpu.inst          1334                       # Number of read requests responded to by this memory (Count)
system.mem_ctrl.dram.numReads::cpu.data          5956                       # Number of read requests responded to by this memory (Count)
system.mem_ctrl.dram.numReads::total             7290                       # Number of read requests responded to by this memory (Count)
system.mem_ctrl.dram.numWrites::writebacks         1405                       # Number of write requests responded to by this memory (Count)
system.mem_ctrl.dram.numWrites::total            1405                       # Number of write requests responded to by this memory (Count)
system.mem_ctrl.dram.bwRead::cpu.inst        15245275                       # Total read bandwidth from this memory ((Byte/Second))
system.mem_ctrl.dram.bwRead::cpu.data        68066608                       # Total read bandwidth from this memory ((Byte/Second))
system.mem_ctrl.dram.bwRead::total           83311883                       # Total read bandwidth from this memory ((Byte/Second))
system.mem_ctrl.dram.bwInstRead::cpu.inst     15245275                       # Instruction read bandwidth from this memory ((Byte/Second))
system.mem_ctrl.dram.bwInstRead::total       15245275                       # Instruction read bandwidth from this memory ((Byte/Second))
system.mem_ctrl.dram.bwWrite::writebacks     16056680                       # Write bandwidth from this memory ((Byte/Second))
system.mem_ctrl.dram.bwWrite::total          16056680                       # Write bandwidth from this memory ((Byte/Second))
system.mem_ctrl.dram.bwTotal::writebacks     16056680                       # Total bandwidth to/from this memory ((Byte/Second))
system.mem_ctrl.dram.bwTotal::cpu.inst       15245275                       # Total bandwidth to/from this memory ((Byte/Second))
system.mem_ctrl.dram.bwTotal::cpu.data       68066608                       # Total bandwidth to/from this memory ((Byte/Second))
system.mem_ctrl.dram.bwTotal::total          99368563                       # Total bandwidth to/from this memory ((Byte/Second))
system.mem_ctrl.dram.readBursts                  7285                       # Number of DRAM read bursts (Count)
system.mem_ctrl.dram.writeBursts                 1381                       # Number of DRAM write bursts (Count)
system.mem_ctrl.dram.perBankRdBursts::0           554                       # Per bank write bursts (Count)
system.mem_ctrl.dram.perBankRdBursts::1           541                       # Per bank write bursts (Count)
system.mem_ctrl.dram.perBankRdBursts::2           808                       # Per bank write bursts (Count)
system.mem_ctrl.dram.perBankRdBursts::3           483                       # Per bank write bursts (Count)
system.mem_ctrl.dram.perBankRdBursts::4           460                       # Per bank write bursts (Count)
system.mem_ctrl.dram.perBankRdBursts::5           378                       # Per bank write bursts (Count)
system.mem_ctrl.dram.perBankRdBursts::6           346                       # Per bank write bursts (Count)
system.mem_ctrl.dram.perBankRdBursts::7           317                       # Per bank write bursts (Count)
system.mem_ctrl.dram.perBankRdBursts::8           349                       # Per bank write bursts (Count)
system.mem_ctrl.dram.perBankRdBursts::9           440                       # Per bank write bursts (Count)
system.mem_ctrl.dram.perBankRdBursts::10          510                       # Per bank write bursts (Count)
system.mem_ctrl.dram.perBankRdBursts::11          429                       # Per bank write bursts (Count)
system.mem_ctrl.dram.perBankRdBursts::12          349                       # Per bank write bursts (Count)
system.mem_ctrl.dram.perBankRdBursts::13          394                       # Per bank write bursts (Count)
system.mem_ctrl.dram.perBankRdBursts::14          406                       # Per bank write bursts (Count)
system.mem_ctrl.dram.perBankRdBursts::15          521                       # Per bank write bursts (Count)
system.mem_ctrl.dram.perBankWrBursts::0           113                       # Per bank write bursts (Count)
system.mem_ctrl.dram.perBankWrBursts::1           101                       # Per bank write bursts (Count)
system.mem_ctrl.dram.perBankWrBursts::2           302                       # Per bank write bursts (Count)
system.mem_ctrl.dram.perBankWrBursts::3           122                       # Per bank write bursts (Count)
system.mem_ctrl.dram.perBankWrBursts::4            59                       # Per bank write bursts (Count)
system.mem_ctrl.dram.perBankWrBursts::5            12                       # Per bank write bursts (Count)
system.mem_ctrl.dram.perBankWrBursts::6            89                       # Per bank write bursts (Count)
system.mem_ctrl.dram.perBankWrBursts::7            16                       # Per bank write bursts (Count)
system.mem_ctrl.dram.perBankWrBursts::8             1                       # Per bank write bursts (Count)
system.mem_ctrl.dram.perBankWrBursts::9            70                       # Per bank write bursts (Count)
system.mem_ctrl.dram.perBankWrBursts::10          136                       # Per bank write bursts (Count)
system.mem_ctrl.dram.perBankWrBursts::11           46                       # Per bank write bursts (Count)
system.mem_ctrl.dram.perBankWrBursts::12            8                       # Per bank write bursts (Count)
system.mem_ctrl.dram.perBankWrBursts::13           52                       # Per bank write bursts (Count)
system.mem_ctrl.dram.perBankWrBursts::14          128                       # Per bank write bursts (Count)
system.mem_ctrl.dram.perBankWrBursts::15          126                       # Per bank write bursts (Count)
system.mem_ctrl.dram.totQLat                 76163000                       # Total ticks spent queuing (Tick)
system.mem_ctrl.dram.totBusLat               36425000                       # Total ticks spent in databus transfers (Tick)
system.mem_ctrl.dram.totMemAccLat           212756750                       # Total ticks spent from burst creation until serviced by the DRAM (Tick)
system.mem_ctrl.dram.avgQLat                 10454.77                       # Average queueing delay per DRAM burst ((Tick/Count))
system.mem_ctrl.dram.avgBusLat                5000.00                       # Average bus latency per DRAM burst ((Tick/Count))
system.mem_ctrl.dram.avgMemAccLat            29204.77                       # Average memory access latency per DRAM burst ((Tick/Count))
system.mem_ctrl.dram.readRowHits                 5961                       # Number of row buffer hits during reads (Count)
system.mem_ctrl.dram.writeRowHits                1150                       # Number of row buffer hits during writes (Count)
system.mem_ctrl.dram.readRowHitRate             81.83                       # Row buffer hit rate for reads (Ratio)
system.mem_ctrl.dram.writeRowHitRate            83.27                       # Row buffer hit rate for writes (Ratio)
system.mem_ctrl.dram.bytesPerActivate::samples         1547                       # Bytes accessed per row activation (Byte)
system.mem_ctrl.dram.bytesPerActivate::mean   357.026503                       # Bytes accessed per row activation (Byte)
system.mem_ctrl.dram.bytesPerActivate::gmean   240.581986                       # Bytes accessed per row activation (Byte)
system.mem_ctrl.dram.bytesPerActivate::stdev   311.360560                       # Bytes accessed per row activation (Byte)
system.mem_ctrl.dram.bytesPerActivate::0-127          328     21.20%     21.20% # Bytes accessed per row activation (Byte)
system.mem_ctrl.dram.bytesPerActivate::128-255          489     31.61%     52.81% # Bytes accessed per row activation (Byte)
system.mem_ctrl.dram.bytesPerActivate::256-383          117      7.56%     60.37% # Bytes accessed per row activation (Byte)
system.mem_ctrl.dram.bytesPerActivate::384-511          224     14.48%     74.85% # Bytes accessed per row activation (Byte)
system.mem_ctrl.dram.bytesPerActivate::512-639           92      5.95%     80.80% # Bytes accessed per row activation (Byte)
system.mem_ctrl.dram.bytesPerActivate::640-767           39      2.52%     83.32% # Bytes accessed per row activation (Byte)
system.mem_ctrl.dram.bytesPerActivate::768-895           52      3.36%     86.68% # Bytes accessed per row activation (Byte)
system.mem_ctrl.dram.bytesPerActivate::896-1023           42      2.71%     89.40% # Bytes accessed per row activation (Byte)
system.mem_ctrl.dram.bytesPerActivate::1024-1151          164     10.60%    100.00% # Bytes accessed per row activation (Byte)
system.mem_ctrl.dram.bytesPerActivate::total         1547                       # Bytes accessed per row activation (Byte)
system.mem_ctrl.dram.bytesRead                 466240                       # Total bytes read (Byte)
system.mem_ctrl.dram.bytesWritten               88384                       # Total bytes written (Byte)
system.mem_ctrl.dram.avgRdBW                83.254742                       # Average DRAM read bandwidth in MiBytes/s ((Byte/Second))
system.mem_ctrl.dram.avgWrBW                15.782402                       # Average DRAM write bandwidth in MiBytes/s ((Byte/Second))
system.mem_ctrl.dram.peakBW                  12800.00                       # Theoretical peak bandwidth in MiByte/s ((Byte/Second))
system.mem_ctrl.dram.busUtil                     0.77                       # Data bus utilization in percentage (Ratio)
system.mem_ctrl.dram.busUtilRead                 0.65                       # Data bus utilization in percentage for reads (Ratio)
system.mem_ctrl.dram.busUtilWrite                0.12                       # Data bus utilization in percentage for writes (Ratio)
system.mem_ctrl.dram.pageHitRate                82.06                       # Row buffer hit rate, read and write combined (Ratio)
system.mem_ctrl.dram.power_state.pwrStateResidencyTicks::UNDEFINED   5600161500                       # Cumulative time (in ticks) in various power states (Tick)
system.mem_ctrl.dram.rank0.actEnergy          6090420                       # Energy for activate commands per rank (pJ) (Joule)
system.mem_ctrl.dram.rank0.preEnergy          3221955                       # Energy for precharge commands per rank (pJ) (Joule)
system.mem_ctrl.dram.rank0.readEnergy        27753180                       # Energy for read commands per rank (pJ) (Joule)
system.mem_ctrl.dram.rank0.writeEnergy        4249080                       # Energy for write commands per rank (pJ) (Joule)
system.mem_ctrl.dram.rank0.refreshEnergy 441926160.000000                       # Energy for refresh commands per rank (pJ) (Joule)
system.mem_ctrl.dram.rank0.actBackEnergy   1014288780                       # Energy for active background per rank (pJ) (Joule)
system.mem_ctrl.dram.rank0.preBackEnergy   1296324480                       # Energy for precharge background per rank (pJ) (Joule)
system.mem_ctrl.dram.rank0.actPowerDownEnergy            0                       # Energy for active power-down per rank (pJ) (Joule)
system.mem_ctrl.dram.rank0.prePowerDownEnergy            0                       # Energy for precharge power-down per rank (pJ) (Joule)
system.mem_ctrl.dram.rank0.selfRefreshEnergy            0                       # Energy for self refresh per rank (pJ) (Joule)
system.mem_ctrl.dram.rank0.totalEnergy     2793854055                       # Total energy per rank (pJ) (Joule)
system.mem_ctrl.dram.rank0.averagePower    498.888122                       # Core power per rank (mW) (Watt)
system.mem_ctrl.dram.rank0.totalIdleTime            0                       # Total Idle time Per DRAM Rank (Tick)
system.mem_ctrl.dram.rank0.pwrStateTime::IDLE   3359563750                       # Time in different power states (Tick)
system.mem_ctrl.dram.rank0.pwrStateTime::REF    186940000                       # Time in different power states (Tick)
system.mem_ctrl.dram.rank0.pwrStateTime::SREF            0                       # Time in different power states (Tick)
system.mem_ctrl.dram.rank0.pwrStateTime::PRE_PDN            0                       # Time in different power states (Tick)
system.mem_ctrl.dram.rank0.pwrStateTime::ACT   2053657750                       # Time in different power states (Tick)
system.mem_ctrl.dram.rank0.pwrStateTime::ACT_PDN            0                       # Time in different power states (Tick)
system.mem_ctrl.dram.rank1.actEnergy          5012280                       # Energy for activate commands per rank (pJ) (Joule)
system.mem_ctrl.dram.rank1.preEnergy          2648910                       # Energy for precharge commands per rank (pJ) (Joule)
system.mem_ctrl.dram.rank1.readEnergy        24261720                       # Energy for read commands per rank (pJ) (Joule)
system.mem_ctrl.dram.rank1.writeEnergy        2959740                       # Energy for write commands per rank (pJ) (Joule)
system.mem_ctrl.dram.rank1.refreshEnergy 441926160.000000                       # Energy for refresh commands per rank (pJ) (Joule)
system.mem_ctrl.dram.rank1.actBackEnergy    792817560                       # Energy for active background per rank (pJ) (Joule)
system.mem_ctrl.dram.rank1.preBackEnergy   1482826560                       # Energy for precharge background per rank (pJ) (Joule)
system.mem_ctrl.dram.rank1.actPowerDownEnergy            0                       # Energy for active power-down per rank (pJ) (Joule)
system.mem_ctrl.dram.rank1.prePowerDownEnergy            0                       # Energy for precharge power-down per rank (pJ) (Joule)
system.mem_ctrl.dram.rank1.selfRefreshEnergy            0                       # Energy for self refresh per rank (pJ) (Joule)
system.mem_ctrl.dram.rank1.totalEnergy     2752452930                       # Total energy per rank (pJ) (Joule)
system.mem_ctrl.dram.rank1.averagePower    491.495277                       # Core power per rank (mW) (Watt)
system.mem_ctrl.dram.rank1.totalIdleTime            0                       # Total Idle time Per DRAM Rank (Tick)
system.mem_ctrl.dram.rank1.pwrStateTime::IDLE   3847269750                       # Time in different power states (Tick)
system.mem_ctrl.dram.rank1.pwrStateTime::REF    186940000                       # Time in different power states (Tick)
system.mem_ctrl.dram.rank1.pwrStateTime::SREF            0                       # Time in different power states (Tick)
system.mem_ctrl.dram.rank1.pwrStateTime::PRE_PDN            0                       # Time in different power states (Tick)
system.mem_ctrl.dram.rank1.pwrStateTime::ACT   1565951750                       # Time in different power states (Tick)
system.mem_ctrl.dram.rank1.pwrStateTime::ACT_PDN            0                       # Time in different power states (Tick)
system.mem_ctrl.power_state.pwrStateResidencyTicks::UNDEFINED   5600161500                       # Cumulative time (in ticks) in various power states (Tick)
system.membus.transDist::ReadResp                5634                       # Transaction distribution (Count)
system.membus.transDist::WritebackDirty          1405                       # Transaction distribution (Count)
system.membus.transDist::CleanEvict              1634                       # Transaction distribution (Count)
system.membus.transDist::ReadExReq               1656                       # Transaction distribution (Count)
system.membus.transDist::ReadExResp              1656                       # Transaction distribution (Count)
system.membus.transDist::ReadSharedReq           5634                       # Transaction distribution (Count)
system.membus.pktCount_system.cpu.l2cache.mem_side_port::system.mem_ctrl.port        17619                       # Packet count per connected requestor and responder (Count)
system.membus.pktCount_system.cpu.l2cache.mem_side_port::total        17619                       # Packet count per connected requestor and responder (Count)
system.membus.pktCount::total                   17619                       # Packet count per connected requestor and responder (Count)
system.membus.pktSize_system.cpu.l2cache.mem_side_port::system.mem_ctrl.port       556480                       # Cumulative packet size per connected requestor and responder (Byte)
system.membus.pktSize_system.cpu.l2cache.mem_side_port::total       556480                       # Cumulative packet size per connected requestor and responder (Byte)
system.membus.pktSize::total                   556480                       # Cumulative packet size per connected requestor and responder (Byte)
system.membus.snoops                                0                       # Total snoops (Count)
system.membus.snoopTraffic                          0                       # Total snoop traffic (Byte)
system.membus.snoopFanout::samples               7290                       # Request fanout histogram (Count)
system.membus.snoopFanout::mean                     0                       # Request fanout histogram (Count)
system.membus.snoopFanout::stdev                    0                       # Request fanout histogram (Count)
system.membus.snoopFanout::underflows               0      0.00%      0.00% # Request fanout histogram (Count)
system.membus.snoopFanout::0                     7290    100.00%    100.00% # Request fanout histogram (Count)
system.membus.snoopFanout::1                        0      0.00%    100.00% # Request fanout histogram (Count)
system.membus.snoopFanout::overflows                0      0.00%    100.00% # Request fanout histogram (Count)
system.membus.snoopFanout::min_value                0                       # Request fanout histogram (Count)
system.membus.snoopFanout::max_value                0                       # Request fanout histogram (Count)
system.membus.snoopFanout::total                 7290                       # Request fanout histogram (Count)
system.membus.power_state.pwrStateResidencyTicks::UNDEFINED   5600161500                       # Cumulative time (in ticks) in various power states (Tick)
system.membus.reqLayer2.occupancy             7974500                       # Layer occupancy (ticks) (Tick)
system.membus.reqLayer2.utilization               0.0                       # Layer utilization (Ratio)
system.membus.respLayer0.occupancy           19507750                       # Layer occupancy (ticks) (Tick)
system.membus.respLayer0.utilization              0.0                       # Layer utilization (Ratio)
system.membus.snoop_filter.totRequests          10329                       # Total number of requests made to the snoop filter. (Count)
system.membus.snoop_filter.hitSingleRequests         3039                       # Number of requests hitting in the snoop filter with a single holder of the requested data. (Count)
system.membus.snoop_filter.hitMultiRequests            0                       # Number of requests hitting in the snoop filter with multiple (>1) holders of the requested data. (Count)
system.membus.snoop_filter.totSnoops                0                       # Total number of snoops made to the snoop filter. (Count)
system.membus.snoop_filter.hitSingleSnoops            0                       # Number of snoops hitting in the snoop filter with a single holder of the requested data. (Count)
system.membus.snoop_filter.hitMultiSnoops            0                       # Number of snoops hitting in the snoop filter with multiple (>1) holders of the requested data. (Count)
system.workload.inst.arm                            0                       # number of arm instructions executed (Count)
system.workload.inst.quiesce                        0                       # number of quiesce instructions executed (Count)

---------- End Simulation Statistics   ----------
