
---------- Begin Simulation Statistics ----------
simSeconds                                   0.005528                       # Number of seconds simulated (Second)
simTicks                                   5528130000                       # Number of ticks simulated (Tick)
finalTick                                  5528130000                       # Number of ticks from beginning of simulation (restored from checkpoints and never reset) (Tick)
simFreq                                  1000000000000                       # The number of ticks per simulated second ((Tick/Second))
hostSeconds                                    137.60                       # Real time elapsed on the host (Second)
hostTickRate                                 40175456                       # The number of ticks simulated per host second (ticks/s) ((Tick/Second))
hostMemory                                    1200808                       # Number of bytes of host memory used (Byte)
simInsts                                     19928450                       # Number of instructions simulated (Count)
simOps                                       35336477                       # Number of ops (including micro ops) simulated (Count)
hostInstRate                                   144829                       # Simulator instruction rate (inst/s) ((Count/Second))
hostOpRate                                     256806                       # Simulator op (including micro ops) rate (op/s) ((Count/Second))
system.clk_domain.clock                           500                       # Clock period in ticks (Tick)
system.clk_domain.voltage_domain.voltage            1                       # Voltage in Volts (Volt)
system.cpu.numCycles                         11056261                       # Number of cpu cycles simulated (Cycle)
system.cpu.numWorkItemsStarted                      0                       # Number of work items this cpu started (Count)
system.cpu.numWorkItemsCompleted                    0                       # Number of work items this cpu completed (Count)
system.cpu.instsAdded                        36865628                       # Number of instructions added to the IQ (excludes non-spec) (Count)
system.cpu.nonSpecInstsAdded                       37                       # Number of non-speculative instructions added to the IQ (Count)
system.cpu.instsIssued                       36478591                       # Number of instructions issued (Count)
system.cpu.squashedInstsIssued                   3119                       # Number of squashed instructions issued (Count)
system.cpu.squashedInstsExamined              1529182                       # Number of squashed instructions iterated over during squash; mainly for profiling (Count)
system.cpu.squashedOperandsExamined           1762252                       # Number of squashed operands that are examined and possibly removed from graph (Count)
system.cpu.squashedNonSpecRemoved                  19                       # Number of squashed non-spec instructions that were removed (Count)
system.cpu.numIssuedDist::samples            10961626                       # Number of insts issued each cycle (Count)
system.cpu.numIssuedDist::mean               3.327845                       # Number of insts issued each cycle (Count)
system.cpu.numIssuedDist::stdev              1.963911                       # Number of insts issued each cycle (Count)
system.cpu.numIssuedDist::underflows                0      0.00%      0.00% # Number of insts issued each cycle (Count)
system.cpu.numIssuedDist::0                    898418      8.20%      8.20% # Number of insts issued each cycle (Count)
system.cpu.numIssuedDist::1                   1249885     11.40%     19.60% # Number of insts issued each cycle (Count)
system.cpu.numIssuedDist::2                    894017      8.16%     27.75% # Number of insts issued each cycle (Count)
system.cpu.numIssuedDist::3                   3588886     32.74%     60.49% # Number of insts issued each cycle (Count)
system.cpu.numIssuedDist::4                   1778158     16.22%     76.72% # Number of insts issued each cycle (Count)
system.cpu.numIssuedDist::5                   1004757      9.17%     85.88% # Number of insts issued each cycle (Count)
system.cpu.numIssuedDist::6                    787212      7.18%     93.06% # Number of insts issued each cycle (Count)
system.cpu.numIssuedDist::7                    268019      2.45%     95.51% # Number of insts issued each cycle (Count)
system.cpu.numIssuedDist::8                    492274      4.49%    100.00% # Number of insts issued each cycle (Count)
system.cpu.numIssuedDist::overflows                 0      0.00%    100.00% # Number of insts issued each cycle (Count)
system.cpu.numIssuedDist::min_value                 0                       # Number of insts issued each cycle (Count)
system.cpu.numIssuedDist::max_value                 8                       # Number of insts issued each cycle (Count)
system.cpu.numIssuedDist::total              10961626                       # Number of insts issued each cycle (Count)
system.cpu.statFuBusy::No_OpClass                   0      0.00%      0.00% # attempts to use FU when none available (Count)
system.cpu.statFuBusy::IntAlu                  568633     95.01%     95.01% # attempts to use FU when none available (Count)
system.cpu.statFuBusy::IntMult                      0      0.00%     95.01% # attempts to use FU when none available (Count)
system.cpu.statFuBusy::IntDiv                       0      0.00%     95.01% # attempts to use FU when none available (Count)
system.cpu.statFuBusy::FloatAdd                     0      0.00%     95.01% # attempts to use FU when none available (Count)
system.cpu.statFuBusy::FloatCmp                     0      0.00%     95.01% # attempts to use FU when none available (Count)
system.cpu.statFuBusy::FloatCvt                     0      0.00%     95.01% # attempts to use FU when none available (Count)
system.cpu.statFuBusy::FloatMult                    0      0.00%     95.01% # attempts to use FU when none available (Count)
system.cpu.statFuBusy::FloatMultAcc                 0      0.00%     95.01% # attempts to use FU when none available (Count)
system.cpu.statFuBusy::FloatDiv                     0      0.00%     95.01% # attempts to use FU when none available (Count)
system.cpu.statFuBusy::FloatMisc                    0      0.00%     95.01% # attempts to use FU when none available (Count)
system.cpu.statFuBusy::FloatSqrt                    0      0.00%     95.01% # attempts to use FU when none available (Count)
system.cpu.statFuBusy::SimdAdd                      0      0.00%     95.01% # attempts to use FU when none available (Count)
system.cpu.statFuBusy::SimdAddAcc                   0      0.00%     95.01% # attempts to use FU when none available (Count)
system.cpu.statFuBusy::SimdAlu                   1015      0.17%     95.18% # attempts to use FU when none available (Count)
system.cpu.statFuBusy::SimdCmp                      0      0.00%     95.18% # attempts to use FU when none available (Count)
system.cpu.statFuBusy::SimdCvt                     19      0.00%     95.18% # attempts to use FU when none available (Count)
system.cpu.statFuBusy::SimdMisc                    10      0.00%     95.18% # attempts to use FU when none available (Count)
system.cpu.statFuBusy::SimdMult                     0      0.00%     95.18% # attempts to use FU when none available (Count)
system.cpu.statFuBusy::SimdMultAcc                  0      0.00%     95.18% # attempts to use FU when none available (Count)
system.cpu.statFuBusy::SimdShift                    0      0.00%     95.18% # attempts to use FU when none available (Count)
system.cpu.statFuBusy::SimdShiftAcc                 0      0.00%     95.18% # attempts to use FU when none available (Count)
system.cpu.statFuBusy::SimdDiv                      0      0.00%     95.18% # attempts to use FU when none available (Count)
system.cpu.statFuBusy::SimdSqrt                     0      0.00%     95.18% # attempts to use FU when none available (Count)
system.cpu.statFuBusy::SimdFloatAdd                 0      0.00%     95.18% # attempts to use FU when none available (Count)
system.cpu.statFuBusy::SimdFloatAlu                 0      0.00%     95.18% # attempts to use FU when none available (Count)
system.cpu.statFuBusy::SimdFloatCmp                 0      0.00%     95.18% # attempts to use FU when none available (Count)
system.cpu.statFuBusy::SimdFloatCvt                 0      0.00%     95.18% # attempts to use FU when none available (Count)
system.cpu.statFuBusy::SimdFloatDiv                 0      0.00%     95.18% # attempts to use FU when none available (Count)
system.cpu.statFuBusy::SimdFloatMisc                0      0.00%     95.18% # attempts to use FU when none available (Count)
system.cpu.statFuBusy::SimdFloatMult                0      0.00%     95.18% # attempts to use FU when none available (Count)
system.cpu.statFuBusy::SimdFloatMultAcc             0      0.00%     95.18% # attempts to use FU when none available (Count)
system.cpu.statFuBusy::SimdFloatSqrt                0      0.00%     95.18% # attempts to use FU when none available (Count)
system.cpu.statFuBusy::SimdReduceAdd                0      0.00%     95.18% # attempts to use FU when none available (Count)
system.cpu.statFuBusy::SimdReduceAlu                0      0.00%     95.18% # attempts to use FU when none available (Count)
system.cpu.statFuBusy::SimdReduceCmp                0      0.00%     95.18% # attempts to use FU when none available (Count)
system.cpu.statFuBusy::SimdFloatReduceAdd            0      0.00%     95.18% # attempts to use FU when none available (Count)
system.cpu.statFuBusy::SimdFloatReduceCmp            0      0.00%     95.18% # attempts to use FU when none available (Count)
system.cpu.statFuBusy::SimdAes                      0      0.00%     95.18% # attempts to use FU when none available (Count)
system.cpu.statFuBusy::SimdAesMix                   0      0.00%     95.18% # attempts to use FU when none available (Count)
system.cpu.statFuBusy::SimdSha1Hash                 0      0.00%     95.18% # attempts to use FU when none available (Count)
system.cpu.statFuBusy::SimdSha1Hash2                0      0.00%     95.18% # attempts to use FU when none available (Count)
system.cpu.statFuBusy::SimdSha256Hash               0      0.00%     95.18% # attempts to use FU when none available (Count)
system.cpu.statFuBusy::SimdSha256Hash2              0      0.00%     95.18% # attempts to use FU when none available (Count)
system.cpu.statFuBusy::SimdShaSigma2                0      0.00%     95.18% # attempts to use FU when none available (Count)
system.cpu.statFuBusy::SimdShaSigma3                0      0.00%     95.18% # attempts to use FU when none available (Count)
system.cpu.statFuBusy::SimdPredAlu                  0      0.00%     95.18% # attempts to use FU when none available (Count)
system.cpu.statFuBusy::MemRead                  18451      3.08%     98.26% # attempts to use FU when none available (Count)
system.cpu.statFuBusy::MemWrite                  4386      0.73%     99.00% # attempts to use FU when none available (Count)
system.cpu.statFuBusy::FloatMemRead              1105      0.18%     99.18% # attempts to use FU when none available (Count)
system.cpu.statFuBusy::FloatMemWrite             4904      0.82%    100.00% # attempts to use FU when none available (Count)
system.cpu.statFuBusy::IprAccess                    0      0.00%    100.00% # attempts to use FU when none available (Count)
system.cpu.statFuBusy::InstPrefetch                 0      0.00%    100.00% # attempts to use FU when none available (Count)
system.cpu.statIssuedInstType_0::No_OpClass       630339      1.73%      1.73% # Number of instructions issued per FU type, per thread (Count)
system.cpu.statIssuedInstType_0::IntAlu      20844471     57.14%     58.87% # Number of instructions issued per FU type, per thread (Count)
system.cpu.statIssuedInstType_0::IntMult       521079      1.43%     60.30% # Number of instructions issued per FU type, per thread (Count)
system.cpu.statIssuedInstType_0::IntDiv         55972      0.15%     60.45% # Number of instructions issued per FU type, per thread (Count)
system.cpu.statIssuedInstType_0::FloatAdd      1527192      4.19%     64.64% # Number of instructions issued per FU type, per thread (Count)
system.cpu.statIssuedInstType_0::FloatCmp            0      0.00%     64.64% # Number of instructions issued per FU type, per thread (Count)
system.cpu.statIssuedInstType_0::FloatCvt           32      0.00%     64.64% # Number of instructions issued per FU type, per thread (Count)
system.cpu.statIssuedInstType_0::FloatMult            0      0.00%     64.64% # Number of instructions issued per FU type, per thread (Count)
system.cpu.statIssuedInstType_0::FloatMultAcc            0      0.00%     64.64% # Number of instructions issued per FU type, per thread (Count)
system.cpu.statIssuedInstType_0::FloatDiv            0      0.00%     64.64% # Number of instructions issued per FU type, per thread (Count)
system.cpu.statIssuedInstType_0::FloatMisc            0      0.00%     64.64% # Number of instructions issued per FU type, per thread (Count)
system.cpu.statIssuedInstType_0::FloatSqrt            0      0.00%     64.64% # Number of instructions issued per FU type, per thread (Count)
system.cpu.statIssuedInstType_0::SimdAdd          444      0.00%     64.64% # Number of instructions issued per FU type, per thread (Count)
system.cpu.statIssuedInstType_0::SimdAddAcc            0      0.00%     64.64% # Number of instructions issued per FU type, per thread (Count)
system.cpu.statIssuedInstType_0::SimdAlu        18996      0.05%     64.69% # Number of instructions issued per FU type, per thread (Count)
system.cpu.statIssuedInstType_0::SimdCmp            8      0.00%     64.69% # Number of instructions issued per FU type, per thread (Count)
system.cpu.statIssuedInstType_0::SimdCvt        11059      0.03%     64.72% # Number of instructions issued per FU type, per thread (Count)
system.cpu.statIssuedInstType_0::SimdMisc        24970      0.07%     64.79% # Number of instructions issued per FU type, per thread (Count)
system.cpu.statIssuedInstType_0::SimdMult            0      0.00%     64.79% # Number of instructions issued per FU type, per thread (Count)
system.cpu.statIssuedInstType_0::SimdMultAcc            0      0.00%     64.79% # Number of instructions issued per FU type, per thread (Count)
system.cpu.statIssuedInstType_0::SimdShift          299      0.00%     64.79% # Number of instructions issued per FU type, per thread (Count)
system.cpu.statIssuedInstType_0::SimdShiftAcc            0      0.00%     64.79% # Number of instructions issued per FU type, per thread (Count)
system.cpu.statIssuedInstType_0::SimdDiv            0      0.00%     64.79% # Number of instructions issued per FU type, per thread (Count)
system.cpu.statIssuedInstType_0::SimdSqrt            0      0.00%     64.79% # Number of instructions issued per FU type, per thread (Count)
system.cpu.statIssuedInstType_0::SimdFloatAdd            0      0.00%     64.79% # Number of instructions issued per FU type, per thread (Count)
system.cpu.statIssuedInstType_0::SimdFloatAlu            0      0.00%     64.79% # Number of instructions issued per FU type, per thread (Count)
system.cpu.statIssuedInstType_0::SimdFloatCmp            0      0.00%     64.79% # Number of instructions issued per FU type, per thread (Count)
system.cpu.statIssuedInstType_0::SimdFloatCvt       509601      1.40%     66.19% # Number of instructions issued per FU type, per thread (Count)
system.cpu.statIssuedInstType_0::SimdFloatDiv            0      0.00%     66.19% # Number of instructions issued per FU type, per thread (Count)
system.cpu.statIssuedInstType_0::SimdFloatMisc            0      0.00%     66.19% # Number of instructions issued per FU type, per thread (Count)
system.cpu.statIssuedInstType_0::SimdFloatMult            0      0.00%     66.19% # Number of instructions issued per FU type, per thread (Count)
system.cpu.statIssuedInstType_0::SimdFloatMultAcc            0      0.00%     66.19% # Number of instructions issued per FU type, per thread (Count)
system.cpu.statIssuedInstType_0::SimdFloatSqrt            0      0.00%     66.19% # Number of instructions issued per FU type, per thread (Count)
system.cpu.statIssuedInstType_0::SimdReduceAdd            0      0.00%     66.19% # Number of instructions issued per FU type, per thread (Count)
system.cpu.statIssuedInstType_0::SimdReduceAlu            0      0.00%     66.19% # Number of instructions issued per FU type, per thread (Count)
system.cpu.statIssuedInstType_0::SimdReduceCmp            0      0.00%     66.19% # Number of instructions issued per FU type, per thread (Count)
system.cpu.statIssuedInstType_0::SimdFloatReduceAdd            0      0.00%     66.19% # Number of instructions issued per FU type, per thread (Count)
system.cpu.statIssuedInstType_0::SimdFloatReduceCmp            0      0.00%     66.19% # Number of instructions issued per FU type, per thread (Count)
system.cpu.statIssuedInstType_0::SimdAes            0      0.00%     66.19% # Number of instructions issued per FU type, per thread (Count)
system.cpu.statIssuedInstType_0::SimdAesMix            0      0.00%     66.19% # Number of instructions issued per FU type, per thread (Count)
system.cpu.statIssuedInstType_0::SimdSha1Hash            0      0.00%     66.19% # Number of instructions issued per FU type, per thread (Count)
system.cpu.statIssuedInstType_0::SimdSha1Hash2            0      0.00%     66.19% # Number of instructions issued per FU type, per thread (Count)
system.cpu.statIssuedInstType_0::SimdSha256Hash            0      0.00%     66.19% # Number of instructions issued per FU type, per thread (Count)
system.cpu.statIssuedInstType_0::SimdSha256Hash2            0      0.00%     66.19% # Number of instructions issued per FU type, per thread (Count)
system.cpu.statIssuedInstType_0::SimdShaSigma2            0      0.00%     66.19% # Number of instructions issued per FU type, per thread (Count)
system.cpu.statIssuedInstType_0::SimdShaSigma3            0      0.00%     66.19% # Number of instructions issued per FU type, per thread (Count)
system.cpu.statIssuedInstType_0::SimdPredAlu            0      0.00%     66.19% # Number of instructions issued per FU type, per thread (Count)
system.cpu.statIssuedInstType_0::MemRead      6118347     16.77%     82.96% # Number of instructions issued per FU type, per thread (Count)
system.cpu.statIssuedInstType_0::MemWrite      3121320      8.56%     91.52% # Number of instructions issued per FU type, per thread (Count)
system.cpu.statIssuedInstType_0::FloatMemRead      2062081      5.65%     97.17% # Number of instructions issued per FU type, per thread (Count)
system.cpu.statIssuedInstType_0::FloatMemWrite      1032381      2.83%    100.00% # Number of instructions issued per FU type, per thread (Count)
system.cpu.statIssuedInstType_0::IprAccess            0      0.00%    100.00% # Number of instructions issued per FU type, per thread (Count)
system.cpu.statIssuedInstType_0::InstPrefetch            0      0.00%    100.00% # Number of instructions issued per FU type, per thread (Count)
system.cpu.statIssuedInstType_0::total       36478591                       # Number of instructions issued per FU type, per thread (Count)
system.cpu.issueRate                         3.299361                       # Inst issue rate ((Count/Cycle))
system.cpu.fuBusy                              598523                       # FU busy when requested (Count)
system.cpu.fuBusyRate                        0.016408                       # FU busy rate (busy events/executed inst) ((Count/Count))
system.cpu.intInstQueueReads                 74122612                       # Number of integer instruction queue reads (Count)
system.cpu.intInstQueueWrites                33101903                       # Number of integer instruction queue writes (Count)
system.cpu.intInstQueueWakeupAccesses        31122801                       # Number of integer instruction queue wakeup accesses (Count)
system.cpu.fpInstQueueReads                  10397838                       # Number of floating instruction queue reads (Count)
system.cpu.fpInstQueueWrites                  5293438                       # Number of floating instruction queue writes (Count)
system.cpu.fpInstQueueWakeupAccesses          5170985                       # Number of floating instruction queue wakeup accesses (Count)
system.cpu.vecInstQueueReads                        0                       # Number of vector instruction queue reads (Count)
system.cpu.vecInstQueueWrites                       0                       # Number of vector instruction queue writes (Count)
system.cpu.vecInstQueueWakeupAccesses               0                       # Number of vector instruction queue wakeup accesses (Count)
system.cpu.intAluAccesses                    31244343                       # Number of integer alu accesses (Count)
system.cpu.fpAluAccesses                      5202432                       # Number of floating point alu accesses (Count)
system.cpu.vecAluAccesses                           0                       # Number of vector alu accesses (Count)
system.cpu.numInsts                          36360492                       # Number of executed instructions (Count)
system.cpu.numLoadInsts                       8155421                       # Number of load instructions executed (Count)
system.cpu.numSquashedInsts                    118099                       # Number of squashed instructions skipped in execute (Count)
system.cpu.numSwp                                   0                       # Number of swp insts executed (Count)
system.cpu.numNop                                   0                       # Number of nop insts executed (Count)
system.cpu.numRefs                           12299201                       # Number of memory reference insts executed (Count)
system.cpu.numBranches                        3366882                       # Number of branches executed (Count)
system.cpu.numStoreInsts                      4143780                       # Number of stores executed (Count)
system.cpu.numRate                           3.288679                       # Inst execution rate ((Count/Cycle))
system.cpu.timesIdled                             904                       # Number of times that the entire CPU went into an idle state and unscheduled itself (Count)
system.cpu.idleCycles                           94635                       # Total number of cycles that the CPU has spent unscheduled due to idling (Cycle)
system.cpu.committedInsts                    19928450                       # Number of Instructions Simulated (Count)
system.cpu.committedOps                      35336477                       # Number of Ops (including micro ops) Simulated (Count)
system.cpu.cpi                               0.554798                       # CPI: Cycles Per Instruction ((Cycle/Count))
system.cpu.totalCpi                          0.554798                       # CPI: Total CPI of All Threads ((Cycle/Count))
system.cpu.ipc                               1.802458                       # IPC: Instructions Per Cycle ((Count/Cycle))
system.cpu.totalIpc                          1.802458                       # IPC: Total IPC of All Threads ((Count/Cycle))
system.cpu.intRegfileReads                   56602000                       # Number of integer regfile reads (Count)
system.cpu.intRegfileWrites                  24672044                       # Number of integer regfile writes (Count)
system.cpu.fpRegfileReads                     2182324                       # Number of floating regfile reads (Count)
system.cpu.fpRegfileWrites                    3621524                       # Number of floating regfile writes (Count)
system.cpu.ccRegfileReads                    10568372                       # number of cc regfile reads (Count)
system.cpu.ccRegfileWrites                    6027950                       # number of cc regfile writes (Count)
system.cpu.miscRegfileReads                  18537104                       # number of misc regfile reads (Count)
system.cpu.miscRegfileWrites                       18                       # number of misc regfile writes (Count)
system.cpu.MemDepUnit__0.insertedLoads        8217935                       # Number of loads inserted to the mem dependence unit. (Count)
system.cpu.MemDepUnit__0.insertedStores       4190360                       # Number of stores inserted to the mem dependence unit. (Count)
system.cpu.MemDepUnit__0.conflictingLoads      2588487                       # Number of conflicting loads. (Count)
system.cpu.MemDepUnit__0.conflictingStores       585572                       # Number of conflicting stores. (Count)
system.cpu.MemDepUnit__1.insertedLoads              0                       # Number of loads inserted to the mem dependence unit. (Count)
system.cpu.MemDepUnit__1.insertedStores             0                       # Number of stores inserted to the mem dependence unit. (Count)
system.cpu.MemDepUnit__1.conflictingLoads            0                       # Number of conflicting loads. (Count)
system.cpu.MemDepUnit__1.conflictingStores            0                       # Number of conflicting stores. (Count)
system.cpu.MemDepUnit__2.insertedLoads              0                       # Number of loads inserted to the mem dependence unit. (Count)
system.cpu.MemDepUnit__2.insertedStores             0                       # Number of stores inserted to the mem dependence unit. (Count)
system.cpu.MemDepUnit__2.conflictingLoads            0                       # Number of conflicting loads. (Count)
system.cpu.MemDepUnit__2.conflictingStores            0                       # Number of conflicting stores. (Count)
system.cpu.MemDepUnit__3.insertedLoads              0                       # Number of loads inserted to the mem dependence unit. (Count)
system.cpu.MemDepUnit__3.insertedStores             0                       # Number of stores inserted to the mem dependence unit. (Count)
system.cpu.MemDepUnit__3.conflictingLoads            0                       # Number of conflicting loads. (Count)
system.cpu.MemDepUnit__3.conflictingStores            0                       # Number of conflicting stores. (Count)
system.cpu.branchPred.lookups                 3560039                       # Number of BP lookups (Count)
system.cpu.branchPred.condPredicted           1747415                       # Number of conditional branches predicted (Count)
system.cpu.branchPred.condIncorrect             47659                       # Number of conditional branches incorrect (Count)
system.cpu.branchPred.BTBLookups              1460419                       # Number of BTB lookups (Count)
system.cpu.branchPred.BTBHits                 1447891                       # Number of BTB hits (Count)
system.cpu.branchPred.BTBHitRatio            0.991422                       # BTB Hit Ratio (Ratio)
system.cpu.branchPred.RASUsed                  591671                       # Number of times the RAS was used to get a target. (Count)
system.cpu.branchPred.RASIncorrect                989                       # Number of incorrect RAS predictions. (Count)
system.cpu.branchPred.indirectLookups          559939                       # Number of indirect predictor lookups. (Count)
system.cpu.branchPred.indirectHits             533623                       # Number of indirect target hits. (Count)
system.cpu.branchPred.indirectMisses            26316                       # Number of indirect misses. (Count)
system.cpu.branchPred.indirectMispredicted          296                       # Number of mispredicted indirect branches. (Count)
system.cpu.commit.commitSquashedInsts         1496994                       # The number of squashed insts skipped by commit (Count)
system.cpu.commit.commitNonSpecStalls              18                       # The number of times commit has been forced to stall to communicate backwards (Count)
system.cpu.commit.branchMispredicts             47222                       # The number of times a branch was mispredicted (Count)
system.cpu.commit.numCommittedDist::samples     10747387                       # Number of insts commited each cycle (Count)
system.cpu.commit.numCommittedDist::mean     3.287913                       # Number of insts commited each cycle (Count)
system.cpu.commit.numCommittedDist::stdev     3.097542                       # Number of insts commited each cycle (Count)
system.cpu.commit.numCommittedDist::underflows            0      0.00%      0.00% # Number of insts commited each cycle (Count)
system.cpu.commit.numCommittedDist::0         2961168     27.55%     27.55% # Number of insts commited each cycle (Count)
system.cpu.commit.numCommittedDist::1          833934      7.76%     35.31% # Number of insts commited each cycle (Count)
system.cpu.commit.numCommittedDist::2         1868449     17.39%     52.70% # Number of insts commited each cycle (Count)
system.cpu.commit.numCommittedDist::3         1304774     12.14%     64.84% # Number of insts commited each cycle (Count)
system.cpu.commit.numCommittedDist::4          615456      5.73%     70.56% # Number of insts commited each cycle (Count)
system.cpu.commit.numCommittedDist::5           99098      0.92%     71.49% # Number of insts commited each cycle (Count)
system.cpu.commit.numCommittedDist::6           64403      0.60%     72.09% # Number of insts commited each cycle (Count)
system.cpu.commit.numCommittedDist::7          493249      4.59%     76.67% # Number of insts commited each cycle (Count)
system.cpu.commit.numCommittedDist::8         2506856     23.33%    100.00% # Number of insts commited each cycle (Count)
system.cpu.commit.numCommittedDist::overflows            0      0.00%    100.00% # Number of insts commited each cycle (Count)
system.cpu.commit.numCommittedDist::min_value            0                       # Number of insts commited each cycle (Count)
system.cpu.commit.numCommittedDist::max_value            8                       # Number of insts commited each cycle (Count)
system.cpu.commit.numCommittedDist::total     10747387                       # Number of insts commited each cycle (Count)
system.cpu.commit.instsCommitted             19928450                       # Number of instructions committed (Count)
system.cpu.commit.opsCommitted               35336477                       # Number of ops (including micro ops) committed (Count)
system.cpu.commit.memRefs                    12069539                       # Number of memory references committed (Count)
system.cpu.commit.loads                       7978510                       # Number of loads committed (Count)
system.cpu.commit.amos                              0                       # Number of atomic instructions committed (Count)
system.cpu.commit.membars                           0                       # Number of memory barriers committed (Count)
system.cpu.commit.branches                    3283692                       # Number of branches committed (Count)
system.cpu.commit.vectorInstructions                0                       # Number of committed Vector instructions. (Count)
system.cpu.commit.floating                    5154398                       # Number of committed floating point instructions. (Count)
system.cpu.commit.integer                    32657360                       # Number of committed integer instructions. (Count)
system.cpu.commit.functionCalls                563369                       # Number of function calls committed. (Count)
system.cpu.commit.committedInstType_0::No_OpClass       589130      1.67%      1.67% # Class of committed instruction (Count)
system.cpu.commit.committedInstType_0::IntAlu     20030633     56.69%     58.35% # Class of committed instruction (Count)
system.cpu.commit.committedInstType_0::IntMult       516165      1.46%     59.81% # Class of committed instruction (Count)
system.cpu.commit.committedInstType_0::IntDiv        53994      0.15%     59.97% # Class of committed instruction (Count)
system.cpu.commit.committedInstType_0::FloatAdd      1513865      4.28%     64.25% # Class of committed instruction (Count)
system.cpu.commit.committedInstType_0::FloatCmp            0      0.00%     64.25% # Class of committed instruction (Count)
system.cpu.commit.committedInstType_0::FloatCvt           32      0.00%     64.25% # Class of committed instruction (Count)
system.cpu.commit.committedInstType_0::FloatMult            0      0.00%     64.25% # Class of committed instruction (Count)
system.cpu.commit.committedInstType_0::FloatMultAcc            0      0.00%     64.25% # Class of committed instruction (Count)
system.cpu.commit.committedInstType_0::FloatDiv            0      0.00%     64.25% # Class of committed instruction (Count)
system.cpu.commit.committedInstType_0::FloatMisc            0      0.00%     64.25% # Class of committed instruction (Count)
system.cpu.commit.committedInstType_0::FloatSqrt            0      0.00%     64.25% # Class of committed instruction (Count)
system.cpu.commit.committedInstType_0::SimdAdd          326      0.00%     64.25% # Class of committed instruction (Count)
system.cpu.commit.committedInstType_0::SimdAddAcc            0      0.00%     64.25% # Class of committed instruction (Count)
system.cpu.commit.committedInstType_0::SimdAlu        18662      0.05%     64.30% # Class of committed instruction (Count)
system.cpu.commit.committedInstType_0::SimdCmp            6      0.00%     64.30% # Class of committed instruction (Count)
system.cpu.commit.committedInstType_0::SimdCvt        10720      0.03%     64.33% # Class of committed instruction (Count)
system.cpu.commit.committedInstType_0::SimdMisc        24821      0.07%     64.40% # Class of committed instruction (Count)
system.cpu.commit.committedInstType_0::SimdMult            0      0.00%     64.40% # Class of committed instruction (Count)
system.cpu.commit.committedInstType_0::SimdMultAcc            0      0.00%     64.40% # Class of committed instruction (Count)
system.cpu.commit.committedInstType_0::SimdShift           90      0.00%     64.40% # Class of committed instruction (Count)
system.cpu.commit.committedInstType_0::SimdShiftAcc            0      0.00%     64.40% # Class of committed instruction (Count)
system.cpu.commit.committedInstType_0::SimdDiv            0      0.00%     64.40% # Class of committed instruction (Count)
system.cpu.commit.committedInstType_0::SimdSqrt            0      0.00%     64.40% # Class of committed instruction (Count)
system.cpu.commit.committedInstType_0::SimdFloatAdd            0      0.00%     64.40% # Class of committed instruction (Count)
system.cpu.commit.committedInstType_0::SimdFloatAlu            0      0.00%     64.40% # Class of committed instruction (Count)
system.cpu.commit.committedInstType_0::SimdFloatCmp            0      0.00%     64.40% # Class of committed instruction (Count)
system.cpu.commit.committedInstType_0::SimdFloatCvt       508494      1.44%     65.84% # Class of committed instruction (Count)
system.cpu.commit.committedInstType_0::SimdFloatDiv            0      0.00%     65.84% # Class of committed instruction (Count)
system.cpu.commit.committedInstType_0::SimdFloatMisc            0      0.00%     65.84% # Class of committed instruction (Count)
system.cpu.commit.committedInstType_0::SimdFloatMult            0      0.00%     65.84% # Class of committed instruction (Count)
system.cpu.commit.committedInstType_0::SimdFloatMultAcc            0      0.00%     65.84% # Class of committed instruction (Count)
system.cpu.commit.committedInstType_0::SimdFloatSqrt            0      0.00%     65.84% # Class of committed instruction (Count)
system.cpu.commit.committedInstType_0::SimdReduceAdd            0      0.00%     65.84% # Class of committed instruction (Count)
system.cpu.commit.committedInstType_0::SimdReduceAlu            0      0.00%     65.84% # Class of committed instruction (Count)
system.cpu.commit.committedInstType_0::SimdReduceCmp            0      0.00%     65.84% # Class of committed instruction (Count)
system.cpu.commit.committedInstType_0::SimdFloatReduceAdd            0      0.00%     65.84% # Class of committed instruction (Count)
system.cpu.commit.committedInstType_0::SimdFloatReduceCmp            0      0.00%     65.84% # Class of committed instruction (Count)
system.cpu.commit.committedInstType_0::SimdAes            0      0.00%     65.84% # Class of committed instruction (Count)
system.cpu.commit.committedInstType_0::SimdAesMix            0      0.00%     65.84% # Class of committed instruction (Count)
system.cpu.commit.committedInstType_0::SimdSha1Hash            0      0.00%     65.84% # Class of committed instruction (Count)
system.cpu.commit.committedInstType_0::SimdSha1Hash2            0      0.00%     65.84% # Class of committed instruction (Count)
system.cpu.commit.committedInstType_0::SimdSha256Hash            0      0.00%     65.84% # Class of committed instruction (Count)
system.cpu.commit.committedInstType_0::SimdSha256Hash2            0      0.00%     65.84% # Class of committed instruction (Count)
system.cpu.commit.committedInstType_0::SimdShaSigma2            0      0.00%     65.84% # Class of committed instruction (Count)
system.cpu.commit.committedInstType_0::SimdShaSigma3            0      0.00%     65.84% # Class of committed instruction (Count)
system.cpu.commit.committedInstType_0::SimdPredAlu            0      0.00%     65.84% # Class of committed instruction (Count)
system.cpu.commit.committedInstType_0::MemRead      5941599     16.81%     82.66% # Class of committed instruction (Count)
system.cpu.commit.committedInstType_0::MemWrite      3058838      8.66%     91.31% # Class of committed instruction (Count)
system.cpu.commit.committedInstType_0::FloatMemRead      2036911      5.76%     97.08% # Class of committed instruction (Count)
system.cpu.commit.committedInstType_0::FloatMemWrite      1032191      2.92%    100.00% # Class of committed instruction (Count)
system.cpu.commit.committedInstType_0::IprAccess            0      0.00%    100.00% # Class of committed instruction (Count)
system.cpu.commit.committedInstType_0::InstPrefetch            0      0.00%    100.00% # Class of committed instruction (Count)
system.cpu.commit.committedInstType_0::total     35336477                       # Class of committed instruction (Count)
system.cpu.commit.commitEligibleSamples       2506856                       # number cycles where commit BW limit reached (Cycle)
system.cpu.dcache.demandHits::cpu.data        8025674                       # number of demand (read+write) hits (Count)
system.cpu.dcache.demandHits::total           8025674                       # number of demand (read+write) hits (Count)
system.cpu.dcache.overallHits::cpu.data       8025674                       # number of overall hits (Count)
system.cpu.dcache.overallHits::total          8025674                       # number of overall hits (Count)
system.cpu.dcache.demandMisses::cpu.data        27057                       # number of demand (read+write) misses (Count)
system.cpu.dcache.demandMisses::total           27057                       # number of demand (read+write) misses (Count)
system.cpu.dcache.overallMisses::cpu.data        27057                       # number of overall misses (Count)
system.cpu.dcache.overallMisses::total          27057                       # number of overall misses (Count)
system.cpu.dcache.demandMissLatency::cpu.data   1112367500                       # number of demand (read+write) miss ticks (Tick)
system.cpu.dcache.demandMissLatency::total   1112367500                       # number of demand (read+write) miss ticks (Tick)
system.cpu.dcache.overallMissLatency::cpu.data   1112367500                       # number of overall miss ticks (Tick)
system.cpu.dcache.overallMissLatency::total   1112367500                       # number of overall miss ticks (Tick)
system.cpu.dcache.demandAccesses::cpu.data      8052731                       # number of demand (read+write) accesses (Count)
system.cpu.dcache.demandAccesses::total       8052731                       # number of demand (read+write) accesses (Count)
system.cpu.dcache.overallAccesses::cpu.data      8052731                       # number of overall (read+write) accesses (Count)
system.cpu.dcache.overallAccesses::total      8052731                       # number of overall (read+write) accesses (Count)
system.cpu.dcache.demandMissRate::cpu.data     0.003360                       # miss rate for demand accesses (Ratio)
system.cpu.dcache.demandMissRate::total      0.003360                       # miss rate for demand accesses (Ratio)
system.cpu.dcache.overallMissRate::cpu.data     0.003360                       # miss rate for overall accesses (Ratio)
system.cpu.dcache.overallMissRate::total     0.003360                       # miss rate for overall accesses (Ratio)
system.cpu.dcache.demandAvgMissLatency::cpu.data 41112.004287                       # average overall miss latency ((Cycle/Count))
system.cpu.dcache.demandAvgMissLatency::total 41112.004287                       # average overall miss latency ((Cycle/Count))
system.cpu.dcache.overallAvgMissLatency::cpu.data 41112.004287                       # average overall miss latency ((Cycle/Count))
system.cpu.dcache.overallAvgMissLatency::total 41112.004287                       # average overall miss latency ((Cycle/Count))
system.cpu.dcache.blockedCycles::no_mshrs        16486                       # number of cycles access was blocked (Cycle)
system.cpu.dcache.blockedCycles::no_targets            0                       # number of cycles access was blocked (Cycle)
system.cpu.dcache.blockedCauses::no_mshrs          313                       # number of times access was blocked (Count)
system.cpu.dcache.blockedCauses::no_targets            0                       # number of times access was blocked (Count)
system.cpu.dcache.avgBlocked::no_mshrs      52.670927                       # average number of cycles each access was blocked ((Cycle/Count))
system.cpu.dcache.avgBlocked::no_targets          nan                       # average number of cycles each access was blocked ((Cycle/Count))
system.cpu.dcache.writebacks::writebacks         5752                       # number of writebacks (Count)
system.cpu.dcache.writebacks::total              5752                       # number of writebacks (Count)
system.cpu.dcache.demandMshrHits::cpu.data        18671                       # number of demand (read+write) MSHR hits (Count)
system.cpu.dcache.demandMshrHits::total         18671                       # number of demand (read+write) MSHR hits (Count)
system.cpu.dcache.overallMshrHits::cpu.data        18671                       # number of overall MSHR hits (Count)
system.cpu.dcache.overallMshrHits::total        18671                       # number of overall MSHR hits (Count)
system.cpu.dcache.demandMshrMisses::cpu.data         8386                       # number of demand (read+write) MSHR misses (Count)
system.cpu.dcache.demandMshrMisses::total         8386                       # number of demand (read+write) MSHR misses (Count)
system.cpu.dcache.overallMshrMisses::cpu.data         8386                       # number of overall MSHR misses (Count)
system.cpu.dcache.overallMshrMisses::total         8386                       # number of overall MSHR misses (Count)
system.cpu.dcache.demandMshrMissLatency::cpu.data    458685000                       # number of demand (read+write) MSHR miss ticks (Tick)
system.cpu.dcache.demandMshrMissLatency::total    458685000                       # number of demand (read+write) MSHR miss ticks (Tick)
system.cpu.dcache.overallMshrMissLatency::cpu.data    458685000                       # number of overall MSHR miss ticks (Tick)
system.cpu.dcache.overallMshrMissLatency::total    458685000                       # number of overall MSHR miss ticks (Tick)
system.cpu.dcache.demandMshrMissRate::cpu.data     0.001041                       # mshr miss ratio for demand accesses (Ratio)
system.cpu.dcache.demandMshrMissRate::total     0.001041                       # mshr miss ratio for demand accesses (Ratio)
system.cpu.dcache.overallMshrMissRate::cpu.data     0.001041                       # mshr miss ratio for overall accesses (Ratio)
system.cpu.dcache.overallMshrMissRate::total     0.001041                       # mshr miss ratio for overall accesses (Ratio)
system.cpu.dcache.demandAvgMshrMissLatency::cpu.data 54696.518006                       # average overall mshr miss latency ((Cycle/Count))
system.cpu.dcache.demandAvgMshrMissLatency::total 54696.518006                       # average overall mshr miss latency ((Cycle/Count))
system.cpu.dcache.overallAvgMshrMissLatency::cpu.data 54696.518006                       # average overall mshr miss latency ((Cycle/Count))
system.cpu.dcache.overallAvgMshrMissLatency::total 54696.518006                       # average overall mshr miss latency ((Cycle/Count))
system.cpu.dcache.replacements                   7362                       # number of replacements (Count)
system.cpu.dcache.ReadReq.hits::cpu.data      3937318                       # number of ReadReq hits (Count)
system.cpu.dcache.ReadReq.hits::total         3937318                       # number of ReadReq hits (Count)
system.cpu.dcache.ReadReq.misses::cpu.data        24384                       # number of ReadReq misses (Count)
system.cpu.dcache.ReadReq.misses::total         24384                       # number of ReadReq misses (Count)
system.cpu.dcache.ReadReq.missLatency::cpu.data    979787000                       # number of ReadReq miss ticks (Tick)
system.cpu.dcache.ReadReq.missLatency::total    979787000                       # number of ReadReq miss ticks (Tick)
system.cpu.dcache.ReadReq.accesses::cpu.data      3961702                       # number of ReadReq accesses(hits+misses) (Count)
system.cpu.dcache.ReadReq.accesses::total      3961702                       # number of ReadReq accesses(hits+misses) (Count)
system.cpu.dcache.ReadReq.missRate::cpu.data     0.006155                       # miss rate for ReadReq accesses (Ratio)
system.cpu.dcache.ReadReq.missRate::total     0.006155                       # miss rate for ReadReq accesses (Ratio)
system.cpu.dcache.ReadReq.avgMissLatency::cpu.data 40181.553478                       # average ReadReq miss latency ((Tick/Count))
system.cpu.dcache.ReadReq.avgMissLatency::total 40181.553478                       # average ReadReq miss latency ((Tick/Count))
system.cpu.dcache.ReadReq.mshrHits::cpu.data        17692                       # number of ReadReq MSHR hits (Count)
system.cpu.dcache.ReadReq.mshrHits::total        17692                       # number of ReadReq MSHR hits (Count)
system.cpu.dcache.ReadReq.mshrMisses::cpu.data         6692                       # number of ReadReq MSHR misses (Count)
system.cpu.dcache.ReadReq.mshrMisses::total         6692                       # number of ReadReq MSHR misses (Count)
system.cpu.dcache.ReadReq.mshrMissLatency::cpu.data    334500000                       # number of ReadReq MSHR miss ticks (Tick)
system.cpu.dcache.ReadReq.mshrMissLatency::total    334500000                       # number of ReadReq MSHR miss ticks (Tick)
system.cpu.dcache.ReadReq.mshrMissRate::cpu.data     0.001689                       # mshr miss rate for ReadReq accesses (Ratio)
system.cpu.dcache.ReadReq.mshrMissRate::total     0.001689                       # mshr miss rate for ReadReq accesses (Ratio)
system.cpu.dcache.ReadReq.avgMshrMissLatency::cpu.data 49985.056784                       # average ReadReq mshr miss latency ((Tick/Count))
system.cpu.dcache.ReadReq.avgMshrMissLatency::total 49985.056784                       # average ReadReq mshr miss latency ((Tick/Count))
system.cpu.dcache.WriteReq.hits::cpu.data      4088356                       # number of WriteReq hits (Count)
system.cpu.dcache.WriteReq.hits::total        4088356                       # number of WriteReq hits (Count)
system.cpu.dcache.WriteReq.misses::cpu.data         2673                       # number of WriteReq misses (Count)
system.cpu.dcache.WriteReq.misses::total         2673                       # number of WriteReq misses (Count)
system.cpu.dcache.WriteReq.missLatency::cpu.data    132580500                       # number of WriteReq miss ticks (Tick)
system.cpu.dcache.WriteReq.missLatency::total    132580500                       # number of WriteReq miss ticks (Tick)
system.cpu.dcache.WriteReq.accesses::cpu.data      4091029                       # number of WriteReq accesses(hits+misses) (Count)
system.cpu.dcache.WriteReq.accesses::total      4091029                       # number of WriteReq accesses(hits+misses) (Count)
system.cpu.dcache.WriteReq.missRate::cpu.data     0.000653                       # miss rate for WriteReq accesses (Ratio)
system.cpu.dcache.WriteReq.missRate::total     0.000653                       # miss rate for WriteReq accesses (Ratio)
system.cpu.dcache.WriteReq.avgMissLatency::cpu.data 49599.887767                       # average WriteReq miss latency ((Tick/Count))
system.cpu.dcache.WriteReq.avgMissLatency::total 49599.887767                       # average WriteReq miss latency ((Tick/Count))
system.cpu.dcache.WriteReq.mshrHits::cpu.data          979                       # number of WriteReq MSHR hits (Count)
system.cpu.dcache.WriteReq.mshrHits::total          979                       # number of WriteReq MSHR hits (Count)
system.cpu.dcache.WriteReq.mshrMisses::cpu.data         1694                       # number of WriteReq MSHR misses (Count)
system.cpu.dcache.WriteReq.mshrMisses::total         1694                       # number of WriteReq MSHR misses (Count)
system.cpu.dcache.WriteReq.mshrMissLatency::cpu.data    124185000                       # number of WriteReq MSHR miss ticks (Tick)
system.cpu.dcache.WriteReq.mshrMissLatency::total    124185000                       # number of WriteReq MSHR miss ticks (Tick)
system.cpu.dcache.WriteReq.mshrMissRate::cpu.data     0.000414                       # mshr miss rate for WriteReq accesses (Ratio)
system.cpu.dcache.WriteReq.mshrMissRate::total     0.000414                       # mshr miss rate for WriteReq accesses (Ratio)
system.cpu.dcache.WriteReq.avgMshrMissLatency::cpu.data 73308.736718                       # average WriteReq mshr miss latency ((Tick/Count))
system.cpu.dcache.WriteReq.avgMshrMissLatency::total 73308.736718                       # average WriteReq mshr miss latency ((Tick/Count))
system.cpu.dcache.power_state.pwrStateResidencyTicks::UNDEFINED   5528130000                       # Cumulative time (in ticks) in various power states (Tick)
system.cpu.dcache.tags.tagsInUse          1015.731659                       # Average ticks per tags in use ((Tick/Count))
system.cpu.dcache.tags.totalRefs              8034060                       # Total number of references to valid blocks. (Count)
system.cpu.dcache.tags.sampledRefs               8386                       # Sample count of references to valid blocks. (Count)
system.cpu.dcache.tags.avgRefs             958.032435                       # Average number of references to valid blocks. ((Count/Count))
system.cpu.dcache.tags.warmupTick              168000                       # The tick when the warmup percentage was hit. (Tick)
system.cpu.dcache.tags.occupancies::cpu.data  1015.731659                       # Average occupied blocks per tick, per requestor ((Count/Tick))
system.cpu.dcache.tags.avgOccs::cpu.data     0.991925                       # Average percentage of cache occupancy ((Ratio/Tick))
system.cpu.dcache.tags.avgOccs::total        0.991925                       # Average percentage of cache occupancy ((Ratio/Tick))
system.cpu.dcache.tags.occupanciesTaskId::1024         1024                       # Occupied blocks per task id (Count)
system.cpu.dcache.tags.ageTaskId_1024::0           46                       # Occupied blocks per task id, per block age (Count)
system.cpu.dcache.tags.ageTaskId_1024::1           11                       # Occupied blocks per task id, per block age (Count)
system.cpu.dcache.tags.ageTaskId_1024::2          106                       # Occupied blocks per task id, per block age (Count)
system.cpu.dcache.tags.ageTaskId_1024::3          861                       # Occupied blocks per task id, per block age (Count)
system.cpu.dcache.tags.ratioOccsTaskId::1024            1                       # Ratio of occupied blocks and all blocks, per task id (Ratio)
system.cpu.dcache.tags.tagAccesses           64430234                       # Number of tag accesses (Count)
system.cpu.dcache.tags.dataAccesses          64430234                       # Number of data accesses (Count)
system.cpu.dcache.tags.power_state.pwrStateResidencyTicks::UNDEFINED   5528130000                       # Cumulative time (in ticks) in various power states (Tick)
system.cpu.decode.idleCycles                  3807268                       # Number of cycles decode is idle (Cycle)
system.cpu.decode.blockedCycles                596682                       # Number of cycles decode is blocked (Cycle)
system.cpu.decode.runCycles                   6425468                       # Number of cycles decode is running (Cycle)
system.cpu.decode.unblockCycles                 83403                       # Number of cycles decode is unblocking (Cycle)
system.cpu.decode.squashCycles                  48805                       # Number of cycles decode is squashing (Cycle)
system.cpu.decode.branchResolved              1435558                       # Number of times decode resolved a branch (Count)
system.cpu.decode.branchMispred                  2618                       # Number of times decode detected a branch misprediction (Count)
system.cpu.decode.decodedInsts               37412332                       # Number of instructions handled by decode (Count)
system.cpu.decode.squashedInsts                  3886                       # Number of squashed instructions handled by decode (Count)
system.cpu.fetch.icacheStallCycles            3892576                       # Number of cycles fetch is stalled on an Icache miss (Cycle)
system.cpu.fetch.insts                       21143481                       # Number of instructions fetch has processed (Count)
system.cpu.fetch.branches                     3560039                       # Number of branches that fetch encountered (Count)
system.cpu.fetch.predictedBranches            2573185                       # Number of branches that fetch has predicted taken (Count)
system.cpu.fetch.cycles                       7001734                       # Number of cycles fetch has run and was not squashing or blocked (Cycle)
system.cpu.fetch.squashCycles                  102828                       # Number of cycles fetch has spent squashing (Cycle)
system.cpu.fetch.miscStallCycles                 2201                       # Number of cycles fetch has spent waiting on interrupts, or bad addresses, or out of MSHRs (Cycle)
system.cpu.fetch.pendingTrapStallCycles         13555                       # Number of stall cycles due to pending traps (Cycle)
system.cpu.fetch.pendingQuiesceStallCycles          132                       # Number of stall cycles due to pending quiesce instructions (Cycle)
system.cpu.fetch.icacheWaitRetryStallCycles           14                       # Number of stall cycles due to full MSHR (Cycle)
system.cpu.fetch.cacheLines                   3822765                       # Number of cache lines fetched (Count)
system.cpu.fetch.icacheSquashes                 17404                       # Number of outstanding Icache misses that were squashed (Count)
system.cpu.fetch.nisnDist::samples           10961626                       # Number of instructions fetched each cycle (Total) (Count)
system.cpu.fetch.nisnDist::mean              3.437441                       # Number of instructions fetched each cycle (Total) (Count)
system.cpu.fetch.nisnDist::stdev             3.480690                       # Number of instructions fetched each cycle (Total) (Count)
system.cpu.fetch.nisnDist::underflows               0      0.00%      0.00% # Number of instructions fetched each cycle (Total) (Count)
system.cpu.fetch.nisnDist::0                  4338597     39.58%     39.58% # Number of instructions fetched each cycle (Total) (Count)
system.cpu.fetch.nisnDist::1                  1098673     10.02%     49.60% # Number of instructions fetched each cycle (Total) (Count)
system.cpu.fetch.nisnDist::2                   108451      0.99%     50.59% # Number of instructions fetched each cycle (Total) (Count)
system.cpu.fetch.nisnDist::3                   157049      1.43%     52.02% # Number of instructions fetched each cycle (Total) (Count)
system.cpu.fetch.nisnDist::4                  1131859     10.33%     62.35% # Number of instructions fetched each cycle (Total) (Count)
system.cpu.fetch.nisnDist::5                   117166      1.07%     63.42% # Number of instructions fetched each cycle (Total) (Count)
system.cpu.fetch.nisnDist::6                   595613      5.43%     68.85% # Number of instructions fetched each cycle (Total) (Count)
system.cpu.fetch.nisnDist::7                   107462      0.98%     69.83% # Number of instructions fetched each cycle (Total) (Count)
system.cpu.fetch.nisnDist::8                  3306756     30.17%    100.00% # Number of instructions fetched each cycle (Total) (Count)
system.cpu.fetch.nisnDist::overflows                0      0.00%    100.00% # Number of instructions fetched each cycle (Total) (Count)
system.cpu.fetch.nisnDist::min_value                0                       # Number of instructions fetched each cycle (Total) (Count)
system.cpu.fetch.nisnDist::max_value                8                       # Number of instructions fetched each cycle (Total) (Count)
system.cpu.fetch.nisnDist::total             10961626                       # Number of instructions fetched each cycle (Total) (Count)
system.cpu.fetch.branchRate                  0.321993                       # Number of branch fetches per cycle (Ratio)
system.cpu.fetch.rate                        1.912354                       # Number of inst fetches per cycle ((Count/Cycle))
system.cpu.icache.demandHits::cpu.inst        3820976                       # number of demand (read+write) hits (Count)
system.cpu.icache.demandHits::total           3820976                       # number of demand (read+write) hits (Count)
system.cpu.icache.overallHits::cpu.inst       3820976                       # number of overall hits (Count)
system.cpu.icache.overallHits::total          3820976                       # number of overall hits (Count)
system.cpu.icache.demandMisses::cpu.inst         1789                       # number of demand (read+write) misses (Count)
system.cpu.icache.demandMisses::total            1789                       # number of demand (read+write) misses (Count)
system.cpu.icache.overallMisses::cpu.inst         1789                       # number of overall misses (Count)
system.cpu.icache.overallMisses::total           1789                       # number of overall misses (Count)
system.cpu.icache.demandMissLatency::cpu.inst    123130500                       # number of demand (read+write) miss ticks (Tick)
system.cpu.icache.demandMissLatency::total    123130500                       # number of demand (read+write) miss ticks (Tick)
system.cpu.icache.overallMissLatency::cpu.inst    123130500                       # number of overall miss ticks (Tick)
system.cpu.icache.overallMissLatency::total    123130500                       # number of overall miss ticks (Tick)
system.cpu.icache.demandAccesses::cpu.inst      3822765                       # number of demand (read+write) accesses (Count)
system.cpu.icache.demandAccesses::total       3822765                       # number of demand (read+write) accesses (Count)
system.cpu.icache.overallAccesses::cpu.inst      3822765                       # number of overall (read+write) accesses (Count)
system.cpu.icache.overallAccesses::total      3822765                       # number of overall (read+write) accesses (Count)
system.cpu.icache.demandMissRate::cpu.inst     0.000468                       # miss rate for demand accesses (Ratio)
system.cpu.icache.demandMissRate::total      0.000468                       # miss rate for demand accesses (Ratio)
system.cpu.icache.overallMissRate::cpu.inst     0.000468                       # miss rate for overall accesses (Ratio)
system.cpu.icache.overallMissRate::total     0.000468                       # miss rate for overall accesses (Ratio)
system.cpu.icache.demandAvgMissLatency::cpu.inst 68826.439352                       # average overall miss latency ((Cycle/Count))
system.cpu.icache.demandAvgMissLatency::total 68826.439352                       # average overall miss latency ((Cycle/Count))
system.cpu.icache.overallAvgMissLatency::cpu.inst 68826.439352                       # average overall miss latency ((Cycle/Count))
system.cpu.icache.overallAvgMissLatency::total 68826.439352                       # average overall miss latency ((Cycle/Count))
system.cpu.icache.blockedCycles::no_mshrs          135                       # number of cycles access was blocked (Cycle)
system.cpu.icache.blockedCycles::no_targets            0                       # number of cycles access was blocked (Cycle)
system.cpu.icache.blockedCauses::no_mshrs            2                       # number of times access was blocked (Count)
system.cpu.icache.blockedCauses::no_targets            0                       # number of times access was blocked (Count)
system.cpu.icache.avgBlocked::no_mshrs      67.500000                       # average number of cycles each access was blocked ((Cycle/Count))
system.cpu.icache.avgBlocked::no_targets          nan                       # average number of cycles each access was blocked ((Cycle/Count))
system.cpu.icache.demandMshrHits::cpu.inst          425                       # number of demand (read+write) MSHR hits (Count)
system.cpu.icache.demandMshrHits::total           425                       # number of demand (read+write) MSHR hits (Count)
system.cpu.icache.overallMshrHits::cpu.inst          425                       # number of overall MSHR hits (Count)
system.cpu.icache.overallMshrHits::total          425                       # number of overall MSHR hits (Count)
system.cpu.icache.demandMshrMisses::cpu.inst         1364                       # number of demand (read+write) MSHR misses (Count)
system.cpu.icache.demandMshrMisses::total         1364                       # number of demand (read+write) MSHR misses (Count)
system.cpu.icache.overallMshrMisses::cpu.inst         1364                       # number of overall MSHR misses (Count)
system.cpu.icache.overallMshrMisses::total         1364                       # number of overall MSHR misses (Count)
system.cpu.icache.demandMshrMissLatency::cpu.inst     97076000                       # number of demand (read+write) MSHR miss ticks (Tick)
system.cpu.icache.demandMshrMissLatency::total     97076000                       # number of demand (read+write) MSHR miss ticks (Tick)
system.cpu.icache.overallMshrMissLatency::cpu.inst     97076000                       # number of overall MSHR miss ticks (Tick)
system.cpu.icache.overallMshrMissLatency::total     97076000                       # number of overall MSHR miss ticks (Tick)
system.cpu.icache.demandMshrMissRate::cpu.inst     0.000357                       # mshr miss ratio for demand accesses (Ratio)
system.cpu.icache.demandMshrMissRate::total     0.000357                       # mshr miss ratio for demand accesses (Ratio)
system.cpu.icache.overallMshrMissRate::cpu.inst     0.000357                       # mshr miss ratio for overall accesses (Ratio)
system.cpu.icache.overallMshrMissRate::total     0.000357                       # mshr miss ratio for overall accesses (Ratio)
system.cpu.icache.demandAvgMshrMissLatency::cpu.inst 71170.087977                       # average overall mshr miss latency ((Cycle/Count))
system.cpu.icache.demandAvgMshrMissLatency::total 71170.087977                       # average overall mshr miss latency ((Cycle/Count))
system.cpu.icache.overallAvgMshrMissLatency::cpu.inst 71170.087977                       # average overall mshr miss latency ((Cycle/Count))
system.cpu.icache.overallAvgMshrMissLatency::total 71170.087977                       # average overall mshr miss latency ((Cycle/Count))
system.cpu.icache.replacements                    851                       # number of replacements (Count)
system.cpu.icache.ReadReq.hits::cpu.inst      3820976                       # number of ReadReq hits (Count)
system.cpu.icache.ReadReq.hits::total         3820976                       # number of ReadReq hits (Count)
system.cpu.icache.ReadReq.misses::cpu.inst         1789                       # number of ReadReq misses (Count)
system.cpu.icache.ReadReq.misses::total          1789                       # number of ReadReq misses (Count)
system.cpu.icache.ReadReq.missLatency::cpu.inst    123130500                       # number of ReadReq miss ticks (Tick)
system.cpu.icache.ReadReq.missLatency::total    123130500                       # number of ReadReq miss ticks (Tick)
system.cpu.icache.ReadReq.accesses::cpu.inst      3822765                       # number of ReadReq accesses(hits+misses) (Count)
system.cpu.icache.ReadReq.accesses::total      3822765                       # number of ReadReq accesses(hits+misses) (Count)
system.cpu.icache.ReadReq.missRate::cpu.inst     0.000468                       # miss rate for ReadReq accesses (Ratio)
system.cpu.icache.ReadReq.missRate::total     0.000468                       # miss rate for ReadReq accesses (Ratio)
system.cpu.icache.ReadReq.avgMissLatency::cpu.inst 68826.439352                       # average ReadReq miss latency ((Tick/Count))
system.cpu.icache.ReadReq.avgMissLatency::total 68826.439352                       # average ReadReq miss latency ((Tick/Count))
system.cpu.icache.ReadReq.mshrHits::cpu.inst          425                       # number of ReadReq MSHR hits (Count)
system.cpu.icache.ReadReq.mshrHits::total          425                       # number of ReadReq MSHR hits (Count)
system.cpu.icache.ReadReq.mshrMisses::cpu.inst         1364                       # number of ReadReq MSHR misses (Count)
system.cpu.icache.ReadReq.mshrMisses::total         1364                       # number of ReadReq MSHR misses (Count)
system.cpu.icache.ReadReq.mshrMissLatency::cpu.inst     97076000                       # number of ReadReq MSHR miss ticks (Tick)
system.cpu.icache.ReadReq.mshrMissLatency::total     97076000                       # number of ReadReq MSHR miss ticks (Tick)
system.cpu.icache.ReadReq.mshrMissRate::cpu.inst     0.000357                       # mshr miss rate for ReadReq accesses (Ratio)
system.cpu.icache.ReadReq.mshrMissRate::total     0.000357                       # mshr miss rate for ReadReq accesses (Ratio)
system.cpu.icache.ReadReq.avgMshrMissLatency::cpu.inst 71170.087977                       # average ReadReq mshr miss latency ((Tick/Count))
system.cpu.icache.ReadReq.avgMshrMissLatency::total 71170.087977                       # average ReadReq mshr miss latency ((Tick/Count))
system.cpu.icache.power_state.pwrStateResidencyTicks::UNDEFINED   5528130000                       # Cumulative time (in ticks) in various power states (Tick)
system.cpu.icache.tags.tagsInUse           510.136153                       # Average ticks per tags in use ((Tick/Count))
system.cpu.icache.tags.totalRefs              3822339                       # Total number of references to valid blocks. (Count)
system.cpu.icache.tags.sampledRefs               1363                       # Sample count of references to valid blocks. (Count)
system.cpu.icache.tags.avgRefs            2804.357300                       # Average number of references to valid blocks. ((Count/Count))
system.cpu.icache.tags.warmupTick               82000                       # The tick when the warmup percentage was hit. (Tick)
system.cpu.icache.tags.occupancies::cpu.inst   510.136153                       # Average occupied blocks per tick, per requestor ((Count/Tick))
system.cpu.icache.tags.avgOccs::cpu.inst     0.996360                       # Average percentage of cache occupancy ((Ratio/Tick))
system.cpu.icache.tags.avgOccs::total        0.996360                       # Average percentage of cache occupancy ((Ratio/Tick))
system.cpu.icache.tags.occupanciesTaskId::1024          512                       # Occupied blocks per task id (Count)
system.cpu.icache.tags.ageTaskId_1024::0           96                       # Occupied blocks per task id, per block age (Count)
system.cpu.icache.tags.ageTaskId_1024::2            8                       # Occupied blocks per task id, per block age (Count)
system.cpu.icache.tags.ageTaskId_1024::3          408                       # Occupied blocks per task id, per block age (Count)
system.cpu.icache.tags.ratioOccsTaskId::1024            1                       # Ratio of occupied blocks and all blocks, per task id (Ratio)
system.cpu.icache.tags.tagAccesses           30583483                       # Number of tag accesses (Count)
system.cpu.icache.tags.dataAccesses          30583483                       # Number of data accesses (Count)
system.cpu.icache.tags.power_state.pwrStateResidencyTicks::UNDEFINED   5528130000                       # Cumulative time (in ticks) in various power states (Tick)
system.cpu.iew.idleCycles                           0                       # Number of cycles IEW is idle (Cycle)
system.cpu.iew.squashCycles                     48805                       # Number of cycles IEW is squashing (Cycle)
system.cpu.iew.blockCycles                     252750                       # Number of cycles IEW is blocking (Cycle)
system.cpu.iew.unblockCycles                    25777                       # Number of cycles IEW is unblocking (Cycle)
system.cpu.iew.dispatchedInsts               36865665                       # Number of instructions dispatched to IQ (Count)
system.cpu.iew.dispSquashedInsts                23586                       # Number of squashed instructions skipped by dispatch (Count)
system.cpu.iew.dispLoadInsts                  8217935                       # Number of dispatched load instructions (Count)
system.cpu.iew.dispStoreInsts                 4190360                       # Number of dispatched store instructions (Count)
system.cpu.iew.dispNonSpecInsts                    35                       # Number of dispatched non-speculative instructions (Count)
system.cpu.iew.iqFullEvents                      2224                       # Number of times the IQ has become full, causing a stall (Count)
system.cpu.iew.lsqFullEvents                    23131                       # Number of times the LSQ has become full, causing a stall (Count)
system.cpu.iew.memOrderViolationEvents            516                       # Number of memory order violations (Count)
system.cpu.iew.predictedTakenIncorrect          19370                       # Number of branches that were predicted taken incorrectly (Count)
system.cpu.iew.predictedNotTakenIncorrect        34277                       # Number of branches that were predicted not taken incorrectly (Count)
system.cpu.iew.branchMispredicts                53647                       # Number of branch mispredicts detected at execute (Count)
system.cpu.iew.instsToCommit                 36313652                       # Cumulative count of insts sent to commit (Count)
system.cpu.iew.writebackCount                36293786                       # Cumulative count of insts written-back (Count)
system.cpu.iew.producerInst                  23264647                       # Number of instructions producing a value (Count)
system.cpu.iew.consumerInst                  30993269                       # Number of instructions consuming a value (Count)
system.cpu.iew.wbRate                        3.282646                       # Insts written-back per cycle ((Count/Cycle))
system.cpu.iew.wbFanout                      0.750635                       # Average fanout of values written-back ((Count/Count))
system.cpu.interrupts.clk_domain.clock           8000                       # Clock period in ticks (Tick)
system.cpu.l2cache.demandHits::cpu.inst            60                       # number of demand (read+write) hits (Count)
system.cpu.l2cache.demandHits::cpu.data          2725                       # number of demand (read+write) hits (Count)
system.cpu.l2cache.demandHits::total             2785                       # number of demand (read+write) hits (Count)
system.cpu.l2cache.overallHits::cpu.inst           60                       # number of overall hits (Count)
system.cpu.l2cache.overallHits::cpu.data         2725                       # number of overall hits (Count)
system.cpu.l2cache.overallHits::total            2785                       # number of overall hits (Count)
system.cpu.l2cache.demandMisses::cpu.inst         1304                       # number of demand (read+write) misses (Count)
system.cpu.l2cache.demandMisses::cpu.data         5661                       # number of demand (read+write) misses (Count)
system.cpu.l2cache.demandMisses::total           6965                       # number of demand (read+write) misses (Count)
system.cpu.l2cache.overallMisses::cpu.inst         1304                       # number of overall misses (Count)
system.cpu.l2cache.overallMisses::cpu.data         5661                       # number of overall misses (Count)
system.cpu.l2cache.overallMisses::total          6965                       # number of overall misses (Count)
system.cpu.l2cache.demandMissLatency::cpu.inst     94391500                       # number of demand (read+write) miss ticks (Tick)
system.cpu.l2cache.demandMissLatency::cpu.data    417397000                       # number of demand (read+write) miss ticks (Tick)
system.cpu.l2cache.demandMissLatency::total    511788500                       # number of demand (read+write) miss ticks (Tick)
system.cpu.l2cache.overallMissLatency::cpu.inst     94391500                       # number of overall miss ticks (Tick)
system.cpu.l2cache.overallMissLatency::cpu.data    417397000                       # number of overall miss ticks (Tick)
system.cpu.l2cache.overallMissLatency::total    511788500                       # number of overall miss ticks (Tick)
system.cpu.l2cache.demandAccesses::cpu.inst         1364                       # number of demand (read+write) accesses (Count)
system.cpu.l2cache.demandAccesses::cpu.data         8386                       # number of demand (read+write) accesses (Count)
system.cpu.l2cache.demandAccesses::total         9750                       # number of demand (read+write) accesses (Count)
system.cpu.l2cache.overallAccesses::cpu.inst         1364                       # number of overall (read+write) accesses (Count)
system.cpu.l2cache.overallAccesses::cpu.data         8386                       # number of overall (read+write) accesses (Count)
system.cpu.l2cache.overallAccesses::total         9750                       # number of overall (read+write) accesses (Count)
system.cpu.l2cache.demandMissRate::cpu.inst     0.956012                       # miss rate for demand accesses (Ratio)
system.cpu.l2cache.demandMissRate::cpu.data     0.675054                       # miss rate for demand accesses (Ratio)
system.cpu.l2cache.demandMissRate::total     0.714359                       # miss rate for demand accesses (Ratio)
system.cpu.l2cache.overallMissRate::cpu.inst     0.956012                       # miss rate for overall accesses (Ratio)
system.cpu.l2cache.overallMissRate::cpu.data     0.675054                       # miss rate for overall accesses (Ratio)
system.cpu.l2cache.overallMissRate::total     0.714359                       # miss rate for overall accesses (Ratio)
system.cpu.l2cache.demandAvgMissLatency::cpu.inst 72386.119632                       # average overall miss latency ((Cycle/Count))
system.cpu.l2cache.demandAvgMissLatency::cpu.data 73732.026144                       # average overall miss latency ((Cycle/Count))
system.cpu.l2cache.demandAvgMissLatency::total 73480.043073                       # average overall miss latency ((Cycle/Count))
system.cpu.l2cache.overallAvgMissLatency::cpu.inst 72386.119632                       # average overall miss latency ((Cycle/Count))
system.cpu.l2cache.overallAvgMissLatency::cpu.data 73732.026144                       # average overall miss latency ((Cycle/Count))
system.cpu.l2cache.overallAvgMissLatency::total 73480.043073                       # average overall miss latency ((Cycle/Count))
system.cpu.l2cache.blockedCycles::no_mshrs            0                       # number of cycles access was blocked (Cycle)
system.cpu.l2cache.blockedCycles::no_targets            0                       # number of cycles access was blocked (Cycle)
system.cpu.l2cache.blockedCauses::no_mshrs            0                       # number of times access was blocked (Count)
system.cpu.l2cache.blockedCauses::no_targets            0                       # number of times access was blocked (Count)
system.cpu.l2cache.avgBlocked::no_mshrs           nan                       # average number of cycles each access was blocked ((Cycle/Count))
system.cpu.l2cache.avgBlocked::no_targets          nan                       # average number of cycles each access was blocked ((Cycle/Count))
system.cpu.l2cache.writebacks::writebacks           58                       # number of writebacks (Count)
system.cpu.l2cache.writebacks::total               58                       # number of writebacks (Count)
system.cpu.l2cache.demandMshrMisses::cpu.inst         1304                       # number of demand (read+write) MSHR misses (Count)
system.cpu.l2cache.demandMshrMisses::cpu.data         5661                       # number of demand (read+write) MSHR misses (Count)
system.cpu.l2cache.demandMshrMisses::total         6965                       # number of demand (read+write) MSHR misses (Count)
system.cpu.l2cache.overallMshrMisses::cpu.inst         1304                       # number of overall MSHR misses (Count)
system.cpu.l2cache.overallMshrMisses::cpu.data         5661                       # number of overall MSHR misses (Count)
system.cpu.l2cache.overallMshrMisses::total         6965                       # number of overall MSHR misses (Count)
system.cpu.l2cache.demandMshrMissLatency::cpu.inst     81361500                       # number of demand (read+write) MSHR miss ticks (Tick)
system.cpu.l2cache.demandMshrMissLatency::cpu.data    360787000                       # number of demand (read+write) MSHR miss ticks (Tick)
system.cpu.l2cache.demandMshrMissLatency::total    442148500                       # number of demand (read+write) MSHR miss ticks (Tick)
system.cpu.l2cache.overallMshrMissLatency::cpu.inst     81361500                       # number of overall MSHR miss ticks (Tick)
system.cpu.l2cache.overallMshrMissLatency::cpu.data    360787000                       # number of overall MSHR miss ticks (Tick)
system.cpu.l2cache.overallMshrMissLatency::total    442148500                       # number of overall MSHR miss ticks (Tick)
system.cpu.l2cache.demandMshrMissRate::cpu.inst     0.956012                       # mshr miss ratio for demand accesses (Ratio)
[...]
system.mem_ctrl.dram.bytesWritten::total         3712                       # Number of bytes written to this memory (Byte)
system.mem_ctrl.dram.numReads::cpu.inst          1303                       # Number of read requests responded to by this memory (Count)
system.mem_ctrl.dram.numReads::cpu.data          5661                       # Number of read requests responded to by this memory (Count)
system.mem_ctrl.dram.numReads::total             6964                       # Number of read requests responded to by this memory (Count)
system.mem_ctrl.dram.numWrites::writebacks           58                       # Number of write requests responded to by this memory (Count)
system.mem_ctrl.dram.numWrites::total              58                       # Number of write requests responded to by this memory (Count)
system.mem_ctrl.dram.bwRead::cpu.inst        15085029                       # Total read bandwidth from this memory ((Byte/Second))
system.mem_ctrl.dram.bwRead::cpu.data        65538256                       # Total read bandwidth from this memory ((Byte/Second))
system.mem_ctrl.dram.bwRead::total           80623285                       # Total read bandwidth from this memory ((Byte/Second))
system.mem_ctrl.dram.bwInstRead::cpu.inst     15085029                       # Instruction read bandwidth from this memory ((Byte/Second))
system.mem_ctrl.dram.bwInstRead::total       15085029                       # Instruction read bandwidth from this memory ((Byte/Second))
system.mem_ctrl.dram.bwWrite::writebacks       671475                       # Write bandwidth from this memory ((Byte/Second))
system.mem_ctrl.dram.bwWrite::total            671475                       # Write bandwidth from this memory ((Byte/Second))
system.mem_ctrl.dram.bwTotal::writebacks       671475                       # Total bandwidth to/from this memory ((Byte/Second))
system.mem_ctrl.dram.bwTotal::cpu.inst       15085029                       # Total bandwidth to/from this memory ((Byte/Second))
system.mem_ctrl.dram.bwTotal::cpu.data       65538256                       # Total bandwidth to/from this memory ((Byte/Second))
system.mem_ctrl.dram.bwTotal::total          81294760                       # Total bandwidth to/from this memory ((Byte/Second))
system.mem_ctrl.dram.readBursts                  6958                       # Number of DRAM read bursts (Count)
system.mem_ctrl.dram.writeBursts                   32                       # Number of DRAM write bursts (Count)
system.mem_ctrl.dram.perBankRdBursts::0           541                       # Per bank write bursts (Count)
system.mem_ctrl.dram.perBankRdBursts::1           530                       # Per bank write bursts (Count)
system.mem_ctrl.dram.perBankRdBursts::2           667                       # Per bank write bursts (Count)
system.mem_ctrl.dram.perBankRdBursts::3           471                       # Per bank write bursts (Count)
system.mem_ctrl.dram.perBankRdBursts::4           452                       # Per bank write bursts (Count)
system.mem_ctrl.dram.perBankRdBursts::5           377                       # Per bank write bursts (Count)
system.mem_ctrl.dram.perBankRdBursts::6           346                       # Per bank write bursts (Count)
system.mem_ctrl.dram.perBankRdBursts::7           317                       # Per bank write bursts (Count)
system.mem_ctrl.dram.perBankRdBursts::8           343                       # Per bank write bursts (Count)
system.mem_ctrl.dram.perBankRdBursts::9           413                       # Per bank write bursts (Count)
system.mem_ctrl.dram.perBankRdBursts::10          477                       # Per bank write bursts (Count)
system.mem_ctrl.dram.perBankRdBursts::11          413                       # Per bank write bursts (Count)
system.mem_ctrl.dram.perBankRdBursts::12          333                       # Per bank write bursts (Count)
system.mem_ctrl.dram.perBankRdBursts::13          385                       # Per bank write bursts (Count)
system.mem_ctrl.dram.perBankRdBursts::14          392                       # Per bank write bursts (Count)
system.mem_ctrl.dram.perBankRdBursts::15          501                       # Per bank write bursts (Count)
system.mem_ctrl.dram.perBankWrBursts::0             4                       # Per bank write bursts (Count)
system.mem_ctrl.dram.perBankWrBursts::1             0                       # Per bank write bursts (Count)
system.mem_ctrl.dram.perBankWrBursts::2            18                       # Per bank write bursts (Count)
system.mem_ctrl.dram.perBankWrBursts::3             3                       # Per bank write bursts (Count)
system.mem_ctrl.dram.perBankWrBursts::4             0                       # Per bank write bursts (Count)
system.mem_ctrl.dram.perBankWrBursts::5             0                       # Per bank write bursts (Count)
system.mem_ctrl.dram.perBankWrBursts::6             0                       # Per bank write bursts (Count)
system.mem_ctrl.dram.perBankWrBursts::7             0                       # Per bank write bursts (Count)
system.mem_ctrl.dram.perBankWrBursts::8             0                       # Per bank write bursts (Count)
system.mem_ctrl.dram.perBankWrBursts::9             1                       # Per bank write bursts (Count)
system.mem_ctrl.dram.perBankWrBursts::10            6                       # Per bank write bursts (Count)
system.mem_ctrl.dram.perBankWrBursts::11            0                       # Per bank write bursts (Count)
system.mem_ctrl.dram.perBankWrBursts::12            0                       # Per bank write bursts (Count)
system.mem_ctrl.dram.perBankWrBursts::13            0                       # Per bank write bursts (Count)
system.mem_ctrl.dram.perBankWrBursts::14            0                       # Per bank write bursts (Count)
system.mem_ctrl.dram.perBankWrBursts::15            0                       # Per bank write bursts (Count)
system.mem_ctrl.dram.totQLat                 63279500                       # Total ticks spent queuing (Tick)
system.mem_ctrl.dram.totBusLat               34790000                       # Total ticks spent in databus transfers (Tick)
system.mem_ctrl.dram.totMemAccLat           193742000                       # Total ticks spent from burst creation until serviced by the DRAM (Tick)
system.mem_ctrl.dram.avgQLat                  9094.50                       # Average queueing delay per DRAM burst ((Tick/Count))
system.mem_ctrl.dram.avgBusLat                5000.00                       # Average bus latency per DRAM burst ((Tick/Count))
system.mem_ctrl.dram.avgMemAccLat            27844.50                       # Average memory access latency per DRAM burst ((Tick/Count))
system.mem_ctrl.dram.readRowHits                 5824                       # Number of row buffer hits during reads (Count)
system.mem_ctrl.dram.writeRowHits                  27                       # Number of row buffer hits during writes (Count)
system.mem_ctrl.dram.readRowHitRate             83.70                       # Row buffer hit rate for reads (Ratio)
system.mem_ctrl.dram.writeRowHitRate            84.38                       # Row buffer hit rate for writes (Ratio)
system.mem_ctrl.dram.bytesPerActivate::samples         1129                       # Bytes accessed per row activation (Byte)
system.mem_ctrl.dram.bytesPerActivate::mean   394.430469                       # Bytes accessed per row activation (Byte)
system.mem_ctrl.dram.bytesPerActivate::gmean   283.751042                       # Bytes accessed per row activation (Byte)
system.mem_ctrl.dram.bytesPerActivate::stdev   314.205768                       # Bytes accessed per row activation (Byte)
system.mem_ctrl.dram.bytesPerActivate::0-127          136     12.05%     12.05% # Bytes accessed per row activation (Byte)
system.mem_ctrl.dram.bytesPerActivate::128-255          395     34.99%     47.03% # Bytes accessed per row activation (Byte)
system.mem_ctrl.dram.bytesPerActivate::256-383           93      8.24%     55.27% # Bytes accessed per row activation (Byte)
system.mem_ctrl.dram.bytesPerActivate::384-511          188     16.65%     71.92% # Bytes accessed per row activation (Byte)
system.mem_ctrl.dram.bytesPerActivate::512-639           80      7.09%     79.01% # Bytes accessed per row activation (Byte)
system.mem_ctrl.dram.bytesPerActivate::640-767           29      2.57%     81.58% # Bytes accessed per row activation (Byte)
system.mem_ctrl.dram.bytesPerActivate::768-895           34      3.01%     84.59% # Bytes accessed per row activation (Byte)
system.mem_ctrl.dram.bytesPerActivate::896-1023           24      2.13%     86.71% # Bytes accessed per row activation (Byte)
system.mem_ctrl.dram.bytesPerActivate::1024-1151          150     13.29%    100.00% # Bytes accessed per row activation (Byte)
system.mem_ctrl.dram.bytesPerActivate::total         1129                       # Bytes accessed per row activation (Byte)
system.mem_ctrl.dram.bytesRead                 445312                       # Total bytes read (Byte)
system.mem_ctrl.dram.bytesWritten                2048                       # Total bytes written (Byte)
system.mem_ctrl.dram.avgRdBW                80.553822                       # Average DRAM read bandwidth in MiBytes/s ((Byte/Second))
system.mem_ctrl.dram.avgWrBW                 0.370469                       # Average DRAM write bandwidth in MiBytes/s ((Byte/Second))
system.mem_ctrl.dram.peakBW                  12800.00                       # Theoretical peak bandwidth in MiByte/s ((Byte/Second))
system.mem_ctrl.dram.busUtil                     0.63                       # Data bus utilization in percentage (Ratio)
system.mem_ctrl.dram.busUtilRead                 0.63                       # Data bus utilization in percentage for reads (Ratio)
system.mem_ctrl.dram.busUtilWrite                0.00                       # Data bus utilization in percentage for writes (Ratio)
system.mem_ctrl.dram.pageHitRate                83.71                       # Row buffer hit rate, read and write combined (Ratio)
system.mem_ctrl.dram.power_state.pwrStateResidencyTicks::UNDEFINED   5528130000                       # Cumulative time (in ticks) in various power states (Tick)
system.mem_ctrl.dram.rank0.actEnergy          4119780                       # Energy for activate commands per rank (pJ) (Joule)
system.mem_ctrl.dram.rank0.preEnergy          2170740                       # Energy for precharge commands per rank (pJ) (Joule)
system.mem_ctrl.dram.rank0.readEnergy        26425140                       # Energy for read commands per rank (pJ) (Joule)
system.mem_ctrl.dram.rank0.writeEnergy         130500                       # Energy for write commands per rank (pJ) (Joule)
system.mem_ctrl.dram.rank0.refreshEnergy 435779760.000000                       # Energy for refresh commands per rank (pJ) (Joule)
system.mem_ctrl.dram.rank0.actBackEnergy    780573960                       # Energy for active background per rank (pJ) (Joule)
system.mem_ctrl.dram.rank0.preBackEnergy   1465476480                       # Energy for precharge background per rank (pJ) (Joule)
system.mem_ctrl.dram.rank0.actPowerDownEnergy            0                       # Energy for active power-down per rank (pJ) (Joule)
system.mem_ctrl.dram.rank0.prePowerDownEnergy            0                       # Energy for precharge power-down per rank (pJ) (Joule)
system.mem_ctrl.dram.rank0.selfRefreshEnergy            0                       # Energy for self refresh per rank (pJ) (Joule)
system.mem_ctrl.dram.rank0.totalEnergy     2714676360                       # Total energy per rank (pJ) (Joule)
system.mem_ctrl.dram.rank0.averagePower    491.065941                       # Core power per rank (mW) (Watt)
system.mem_ctrl.dram.rank0.totalIdleTime            0                       # Total Idle time Per DRAM Rank (Tick)
system.mem_ctrl.dram.rank0.pwrStateTime::IDLE   3801994000                       # Time in different power states (Tick)
system.mem_ctrl.dram.rank0.pwrStateTime::REF    184340000                       # Time in different power states (Tick)
system.mem_ctrl.dram.rank0.pwrStateTime::SREF            0                       # Time in different power states (Tick)
system.mem_ctrl.dram.rank0.pwrStateTime::PRE_PDN            0                       # Time in different power states (Tick)
system.mem_ctrl.dram.rank0.pwrStateTime::ACT   1541796000                       # Time in different power states (Tick)
system.mem_ctrl.dram.rank0.pwrStateTime::ACT_PDN            0                       # Time in different power states (Tick)
system.mem_ctrl.dram.rank1.actEnergy          4012680                       # Energy for activate commands per rank (pJ) (Joule)
system.mem_ctrl.dram.rank1.preEnergy          2113815                       # Energy for precharge commands per rank (pJ) (Joule)
system.mem_ctrl.dram.rank1.readEnergy        23254980                       # Energy for read commands per rank (pJ) (Joule)
system.mem_ctrl.dram.rank1.writeEnergy          36540                       # Energy for write commands per rank (pJ) (Joule)
system.mem_ctrl.dram.rank1.refreshEnergy 435779760.000000                       # Energy for refresh commands per rank (pJ) (Joule)
system.mem_ctrl.dram.rank1.actBackEnergy    772859580                       # Energy for active background per rank (pJ) (Joule)
system.mem_ctrl.dram.rank1.preBackEnergy   1471972800                       # Energy for precharge background per rank (pJ) (Joule)
system.mem_ctrl.dram.rank1.actPowerDownEnergy            0                       # Energy for active power-down per rank (pJ) (Joule)
system.mem_ctrl.dram.rank1.prePowerDownEnergy            0                       # Energy for precharge power-down per rank (pJ) (Joule)
system.mem_ctrl.dram.rank1.selfRefreshEnergy            0                       # Energy for self refresh per rank (pJ) (Joule)
system.mem_ctrl.dram.rank1.totalEnergy     2710030155                       # Total energy per rank (pJ) (Joule)
system.mem_ctrl.dram.rank1.averagePower    490.225475                       # Core power per rank (mW) (Watt)
system.mem_ctrl.dram.rank1.totalIdleTime            0                       # Total Idle time Per DRAM Rank (Tick)
system.mem_ctrl.dram.rank1.pwrStateTime::IDLE   3819261750                       # Time in different power states (Tick)
system.mem_ctrl.dram.rank1.pwrStateTime::REF    184340000                       # Time in different power states (Tick)
system.mem_ctrl.dram.rank1.pwrStateTime::SREF            0                       # Time in different power states (Tick)
system.mem_ctrl.dram.rank1.pwrStateTime::PRE_PDN            0                       # Time in different power states (Tick)
system.mem_ctrl.dram.rank1.pwrStateTime::ACT   1524528250                       # Time in different power states (Tick)
system.mem_ctrl.dram.rank1.pwrStateTime::ACT_PDN            0                       # Time in different power states (Tick)
system.mem_ctrl.power_state.pwrStateResidencyTicks::UNDEFINED   5528130000                       # Cumulative time (in ticks) in various power states (Tick)
system.membus.transDist::ReadResp                5311                       # Transaction distribution (Count)
system.membus.transDist::WritebackDirty            58                       # Transaction distribution (Count)
system.membus.transDist::CleanEvict               144                       # Transaction distribution (Count)
system.membus.transDist::ReadExReq               1653                       # Transaction distribution (Count)
system.membus.transDist::ReadExResp              1653                       # Transaction distribution (Count)
system.membus.transDist::ReadSharedReq           5311                       # Transaction distribution (Count)
system.membus.pktCount_system.cpu.l2cache.mem_side_port::system.mem_ctrl.port        14130                       # Packet count per connected requestor and responder (Count)
system.membus.pktCount_system.cpu.l2cache.mem_side_port::total        14130                       # Packet count per connected requestor and responder (Count)
system.membus.pktCount::total                   14130                       # Packet count per connected requestor and responder (Count)
system.membus.pktSize_system.cpu.l2cache.mem_side_port::system.mem_ctrl.port       449408                       # Cumulative packet size per connected requestor and responder (Byte)
system.membus.pktSize_system.cpu.l2cache.mem_side_port::total       449408                       # Cumulative packet size per connected requestor and responder (Byte)
system.membus.pktSize::total                   449408                       # Cumulative packet size per connected requestor and responder (Byte)
system.membus.snoops                                0                       # Total snoops (Count)
system.membus.snoopTraffic                          0                       # Total snoop traffic (Byte)
system.membus.snoopFanout::samples               6964                       # Request fanout histogram (Count)
system.membus.snoopFanout::mean                     0                       # Request fanout histogram (Count)
system.membus.snoopFanout::stdev                    0                       # Request fanout histogram (Count)
system.membus.snoopFanout::underflows               0      0.00%      0.00% # Request fanout histogram (Count)
system.membus.snoopFanout::0                     6964    100.00%    100.00% # Request fanout histogram (Count)
system.membus.snoopFanout::1                        0      0.00%    100.00% # Request fanout histogram (Count)
system.membus.snoopFanout::overflows                0      0.00%    100.00% # Request fanout histogram (Count)
system.membus.snoopFanout::min_value                0                       # Request fanout histogram (Count)
system.membus.snoopFanout::max_value                0                       # Request fanout histogram (Count)
system.membus.snoopFanout::total                 6964                       # Request fanout histogram (Count)
system.membus.power_state.pwrStateResidencyTicks::UNDEFINED   5528130000                       # Cumulative time (in ticks) in various power states (Tick)
system.membus.reqLayer2.occupancy             3699000                       # Layer occupancy (ticks) (Tick)
system.membus.reqLayer2.utilization               0.0                       # Layer utilization (Ratio)
system.membus.respLayer0.occupancy           18652500                       # Layer occupancy (ticks) (Tick)
system.membus.respLayer0.utilization              0.0                       # Layer utilization (Ratio)
system.membus.snoop_filter.totRequests           7166                       # Total number of requests made to the snoop filter. (Count)
system.membus.snoop_filter.hitSingleRequests          202                       # Number of requests hitting in the snoop filter with a single holder of the requested data. (Count)
system.membus.snoop_filter.hitMultiRequests            0                       # Number of requests hitting in the snoop filter with multiple (>1) holders of the requested data. (Count)
system.membus.snoop_filter.totSnoops                0                       # Total number of snoops made to the snoop filter. (Count)
system.membus.snoop_filter.hitSingleSnoops            0                       # Number of snoops hitting in the snoop filter with a single holder of the requested data. (Count)
system.membus.snoop_filter.hitMultiSnoops            0                       # Number of snoops hitting in the snoop filter with multiple (>1) holders of the requested data. (Count)
system.workload.inst.arm                            0                       # number of arm instructions executed (Count)
system.workload.inst.quiesce                        0                       # number of quiesce instructions executed (Count)

---------- End Simulation Statistics   ----------
