
---------- Begin Simulation Statistics ----------
simSeconds                                   0.005372                       # Number of seconds simulated (Second)
simTicks                                   5372058500                       # Number of ticks simulated (Tick)
finalTick                                  5372058500                       # Number of ticks from beginning of simulation (restored from checkpoints and never reset) (Tick)
simFreq                                  1000000000000                       # The number of ticks per simulated second ((Tick/Second))
hostSeconds                                    138.65                       # Real time elapsed on the host (Second)
hostTickRate                                 38744689                       # The number of ticks simulated per host second (ticks/s) ((Tick/Second))
hostMemory                                    1198500                       # Number of bytes of host memory used (Byte)
simInsts                                     19928450                       # Number of instructions simulated (Count)
simOps                                       35336477                       # Number of ops (including micro ops) simulated (Count)
hostInstRate                                   143729                       # Simulator instruction rate (inst/s) ((Count/Second))
hostOpRate                                     254856                       # Simulator op (including micro ops) rate (op/s) ((Count/Second))
system.clk_domain.clock                           500                       # Clock period in ticks (Tick)
system.clk_domain.voltage_domain.voltage            1                       # Voltage in Volts (Volt)
system.cpu.numCycles                         10744118                       # Number of cpu cycles simulated (Cycle)
system.cpu.numWorkItemsStarted                      0                       # Number of work items this cpu started (Count)
system.cpu.numWorkItemsCompleted                    0                       # Number of work items this cpu completed (Count)
system.cpu.instsAdded                        35863157                       # Number of instructions added to the IQ (excludes non-spec) (Count)
system.cpu.nonSpecInstsAdded                       36                       # Number of non-speculative instructions added to the IQ (Count)
system.cpu.instsIssued                       35721323                       # Number of instructions issued (Count)
system.cpu.squashedInstsIssued                   1335                       # Number of squashed instructions issued (Count)
system.cpu.squashedInstsExamined               526710                       # Number of squashed instructions iterated over during squash; mainly for profiling (Count)
system.cpu.squashedOperandsExamined            610053                       # Number of squashed operands that are examined and possibly removed from graph (Count)
system.cpu.squashedNonSpecRemoved                  18                       # Number of squashed non-spec instructions that were removed (Count)
system.cpu.numIssuedDist::samples            10645127                       # Number of insts issued each cycle (Count)
system.cpu.numIssuedDist::mean               3.355650                       # Number of insts issued each cycle (Count)
system.cpu.numIssuedDist::stdev              1.932762                       # Number of insts issued each cycle (Count)
system.cpu.numIssuedDist::underflows                0      0.00%      0.00% # Number of insts issued each cycle (Count)
system.cpu.numIssuedDist::0                    757166      7.11%      7.11% # Number of insts issued each cycle (Count)
system.cpu.numIssuedDist::1                   1226379     11.52%     18.63% # Number of insts issued each cycle (Count)
system.cpu.numIssuedDist::2                    881303      8.28%     26.91% # Number of insts issued each cycle (Count)
system.cpu.numIssuedDist::3                   3548725     33.34%     60.25% # Number of insts issued each cycle (Count)
system.cpu.numIssuedDist::4                   1764464     16.58%     76.82% # Number of insts issued each cycle (Count)
system.cpu.numIssuedDist::5                    996086      9.36%     86.18% # Number of insts issued each cycle (Count)
system.cpu.numIssuedDist::6                    734123      6.90%     93.08% # Number of insts issued each cycle (Count)
system.cpu.numIssuedDist::7                    251909      2.37%     95.44% # Number of insts issued each cycle (Count)
system.cpu.numIssuedDist::8                    484972      4.56%    100.00% # Number of insts issued each cycle (Count)
system.cpu.numIssuedDist::overflows                 0      0.00%    100.00% # Number of insts issued each cycle (Count)
system.cpu.numIssuedDist::min_value                 0                       # Number of insts issued each cycle (Count)
system.cpu.numIssuedDist::max_value                 8                       # Number of insts issued each cycle (Count)
system.cpu.numIssuedDist::total              10645127                       # Number of insts issued each cycle (Count)
system.cpu.statFuBusy::No_OpClass                   0      0.00%      0.00% # attempts to use FU when none available (Count)
system.cpu.statFuBusy::IntAlu                  574687     95.19%     95.19% # attempts to use FU when none available (Count)
system.cpu.statFuBusy::IntMult                      0      0.00%     95.19% # attempts to use FU when none available (Count)
system.cpu.statFuBusy::IntDiv                       0      0.00%     95.19% # attempts to use FU when none available (Count)
system.cpu.statFuBusy::FloatAdd                     0      0.00%     95.19% # attempts to use FU when none available (Count)
system.cpu.statFuBusy::FloatCmp                     0      0.00%     95.19% # attempts to use FU when none available (Count)
system.cpu.statFuBusy::FloatCvt                     0      0.00%     95.19% # attempts to use FU when none available (Count)
system.cpu.statFuBusy::FloatMult                    0      0.00%     95.19% # attempts to use FU when none available (Count)
system.cpu.statFuBusy::FloatMultAcc                 0      0.00%     95.19% # attempts to use FU when none available (Count)
system.cpu.statFuBusy::FloatDiv                     0      0.00%     95.19% # attempts to use FU when none available (Count)
system.cpu.statFuBusy::FloatMisc                    0      0.00%     95.19% # attempts to use FU when none available (Count)
system.cpu.statFuBusy::FloatSqrt                    0      0.00%     95.19% # attempts to use FU when none available (Count)
system.cpu.statFuBusy::SimdAdd                      0      0.00%     95.19% # attempts to use FU when none available (Count)
system.cpu.statFuBusy::SimdAddAcc                   0      0.00%     95.19% # attempts to use FU when none available (Count)
system.cpu.statFuBusy::SimdAlu                   1019      0.17%     95.36% # attempts to use FU when none available (Count)
system.cpu.statFuBusy::SimdCmp                      0      0.00%     95.36% # attempts to use FU when none available (Count)
system.cpu.statFuBusy::SimdCvt                     31      0.01%     95.36% # attempts to use FU when none available (Count)
system.cpu.statFuBusy::SimdMisc                     5      0.00%     95.36% # attempts to use FU when none available (Count)
system.cpu.statFuBusy::SimdMult                     0      0.00%     95.36% # attempts to use FU when none available (Count)
system.cpu.statFuBusy::SimdMultAcc                  0      0.00%     95.36% # attempts to use FU when none available (Count)
system.cpu.statFuBusy::SimdShift                    0      0.00%     95.36% # attempts to use FU when none available (Count)
system.cpu.statFuBusy::SimdShiftAcc                 0      0.00%     95.36% # attempts to use FU when none available (Count)
system.cpu.statFuBusy::SimdDiv                      0      0.00%     95.36% # attempts to use FU when none available (Count)
system.cpu.statFuBusy::SimdSqrt                     0      0.00%     95.36% # attempts to use FU when none available (Count)
system.cpu.statFuBusy::SimdFloatAdd                 0      0.00%     95.36% # attempts to use FU when none available (Count)
system.cpu.statFuBusy::SimdFloatAlu                 0      0.00%     95.36% # attempts to use FU when none available (Count)
system.cpu.statFuBusy::SimdFloatCmp                 0      0.00%     95.36% # attempts to use FU when none available (Count)
system.cpu.statFuBusy::SimdFloatCvt                 0      0.00%     95.36% # attempts to use FU when none available (Count)
system.cpu.statFuBusy::SimdFloatDiv                 0      0.00%     95.36% # attempts to use FU when none available (Count)
system.cpu.statFuBusy::SimdFloatMisc                0      0.00%     95.36% # attempts to use FU when none available (Count)
system.cpu.statFuBusy::SimdFloatMult                0      0.00%     95.36% # attempts to use FU when none available (Count)
system.cpu.statFuBusy::SimdFloatMultAcc             0      0.00%     95.36% # attempts to use FU when none available (Count)
system.cpu.statFuBusy::SimdFloatSqrt                0      0.00%     95.36% # attempts to use FU when none available (Count)
system.cpu.statFuBusy::SimdReduceAdd                0      0.00%     95.36% # attempts to use FU when none available (Count)
system.cpu.statFuBusy::SimdReduceAlu                0      0.00%     95.36% # attempts to use FU when none available (Count)
system.cpu.statFuBusy::SimdReduceCmp                0      0.00%     95.36% # attempts to use FU when none available (Count)
system.cpu.statFuBusy::SimdFloatReduceAdd            0      0.00%     95.36% # attempts to use FU when none available (Count)
system.cpu.statFuBusy::SimdFloatReduceCmp            0      0.00%     95.36% # attempts to use FU when none available (Count)
system.cpu.statFuBusy::SimdAes                      0      0.00%     95.36% # attempts to use FU when none available (Count)
system.cpu.statFuBusy::SimdAesMix                   0      0.00%     95.36% # attempts to use FU when none available (Count)
system.cpu.statFuBusy::SimdSha1Hash                 0      0.00%     95.36% # attempts to use FU when none available (Count)
system.cpu.statFuBusy::SimdSha1Hash2                0      0.00%     95.36% # attempts to use FU when none available (Count)
system.cpu.statFuBusy::SimdSha256Hash               0      0.00%     95.36% # attempts to use FU when none available (Count)
system.cpu.statFuBusy::SimdSha256Hash2              0      0.00%     95.36% # attempts to use FU when none available (Count)
system.cpu.statFuBusy::SimdShaSigma2                0      0.00%     95.36% # attempts to use FU when none available (Count)
system.cpu.statFuBusy::SimdShaSigma3                0      0.00%     95.36% # attempts to use FU when none available (Count)
system.cpu.statFuBusy::SimdPredAlu                  0      0.00%     95.36% # attempts to use FU when none available (Count)
system.cpu.statFuBusy::MemRead                  18696      3.10%     98.46% # attempts to use FU when none available (Count)
system.cpu.statFuBusy::MemWrite                  2424      0.40%     98.86% # attempts to use FU when none available (Count)
system.cpu.statFuBusy::FloatMemRead              1974      0.33%     99.19% # attempts to use FU when none available (Count)
system.cpu.statFuBusy::FloatMemWrite             4899      0.81%    100.00% # attempts to use FU when none available (Count)
system.cpu.statFuBusy::IprAccess                    0      0.00%    100.00% # attempts to use FU when none available (Count)
system.cpu.statFuBusy::InstPrefetch                 0      0.00%    100.00% # attempts to use FU when none available (Count)
system.cpu.statIssuedInstType_0::No_OpClass       594119      1.66%      1.66% # Number of instructions issued per FU type, per thread (Count)
system.cpu.statIssuedInstType_0::IntAlu      20325009     56.90%     58.56% # Number of instructions issued per FU type, per thread (Count)
system.cpu.statIssuedInstType_0::IntMult       517544      1.45%     60.01% # Number of instructions issued per FU type, per thread (Count)
system.cpu.statIssuedInstType_0::IntDiv         54226      0.15%     60.16% # Number of instructions issued per FU type, per thread (Count)
system.cpu.statIssuedInstType_0::FloatAdd      1517331      4.25%     64.41% # Number of instructions issued per FU type, per thread (Count)
system.cpu.statIssuedInstType_0::FloatCmp            0      0.00%     64.41% # Number of instructions issued per FU type, per thread (Count)
system.cpu.statIssuedInstType_0::FloatCvt           32      0.00%     64.41% # Number of instructions issued per FU type, per thread (Count)
system.cpu.statIssuedInstType_0::FloatMult            0      0.00%     64.41% # Number of instructions issued per FU type, per thread (Count)
system.cpu.statIssuedInstType_0::FloatMultAcc            0      0.00%     64.41% # Number of instructions issued per FU type, per thread (Count)
system.cpu.statIssuedInstType_0::FloatDiv            0      0.00%     64.41% # Number of instructions issued per FU type, per thread (Count)
system.cpu.statIssuedInstType_0::FloatMisc            0      0.00%     64.41% # Number of instructions issued per FU type, per thread (Count)
system.cpu.statIssuedInstType_0::FloatSqrt            0      0.00%     64.41% # Number of instructions issued per FU type, per thread (Count)
system.cpu.statIssuedInstType_0::SimdAdd          463      0.00%     64.41% # Number of instructions issued per FU type, per thread (Count)
system.cpu.statIssuedInstType_0::SimdAddAcc            0      0.00%     64.41% # Number of instructions issued per FU type, per thread (Count)
system.cpu.statIssuedInstType_0::SimdAlu        19185      0.05%     64.47% # Number of instructions issued per FU type, per thread (Count)
system.cpu.statIssuedInstType_0::SimdCmp            8      0.00%     64.47% # Number of instructions issued per FU type, per thread (Count)
system.cpu.statIssuedInstType_0::SimdCvt        11134      0.03%     64.50% # Number of instructions issued per FU type, per thread (Count)
system.cpu.statIssuedInstType_0::SimdMisc        25000      0.07%     64.57% # Number of instructions issued per FU type, per thread (Count)
system.cpu.statIssuedInstType_0::SimdMult            0      0.00%     64.57% # Number of instructions issued per FU type, per thread (Count)
system.cpu.statIssuedInstType_0::SimdMultAcc            0      0.00%     64.57% # Number of instructions issued per FU type, per thread (Count)
system.cpu.statIssuedInstType_0::SimdShift          334      0.00%     64.57% # Number of instructions issued per FU type, per thread (Count)
system.cpu.statIssuedInstType_0::SimdShiftAcc            0      0.00%     64.57% # Number of instructions issued per FU type, per thread (Count)
system.cpu.statIssuedInstType_0::SimdDiv            0      0.00%     64.57% # Number of instructions issued per FU type, per thread (Count)
system.cpu.statIssuedInstType_0::SimdSqrt            0      0.00%     64.57% # Number of instructions issued per FU type, per thread (Count)
system.cpu.statIssuedInstType_0::SimdFloatAdd            0      0.00%     64.57% # Number of instructions issued per FU type, per thread (Count)
system.cpu.statIssuedInstType_0::SimdFloatAlu            0      0.00%     64.57% # Number of instructions issued per FU type, per thread (Count)
system.cpu.statIssuedInstType_0::SimdFloatCmp            0      0.00%     64.57% # Number of instructions issued per FU type, per thread (Count)
system.cpu.statIssuedInstType_0::SimdFloatCvt       508516      1.42%     65.99% # Number of instructions issued per FU type, per thread (Count)
system.cpu.statIssuedInstType_0::SimdFloatDiv            0      0.00%     65.99% # Number of instructions issued per FU type, per thread (Count)
system.cpu.statIssuedInstType_0::SimdFloatMisc            0      0.00%     65.99% # Number of instructions issued per FU type, per thread (Count)
system.cpu.statIssuedInstType_0::SimdFloatMult            0      0.00%     65.99% # Number of instructions issued per FU type, per thread (Count)
system.cpu.statIssuedInstType_0::SimdFloatMultAcc            0      0.00%     65.99% # Number of instructions issued per FU type, per thread (Count)
system.cpu.statIssuedInstType_0::SimdFloatSqrt            0      0.00%     65.99% # Number of instructions issued per FU type, per thread (Count)
system.cpu.statIssuedInstType_0::SimdReduceAdd            0      0.00%     65.99% # Number of instructions issued per FU type, per thread (Count)
system.cpu.statIssuedInstType_0::SimdReduceAlu            0      0.00%     65.99% # Number of instructions issued per FU type, per thread (Count)
system.cpu.statIssuedInstType_0::SimdReduceCmp            0      0.00%     65.99% # Number of instructions issued per FU type, per thread (Count)
system.cpu.statIssuedInstType_0::SimdFloatReduceAdd            0      0.00%     65.99% # Number of instructions issued per FU type, per thread (Count)
system.cpu.statIssuedInstType_0::SimdFloatReduceCmp            0      0.00%     65.99% # Number of instructions issued per FU type, per thread (Count)
system.cpu.statIssuedInstType_0::SimdAes            0      0.00%     65.99% # Number of instructions issued per FU type, per thread (Count)
system.cpu.statIssuedInstType_0::SimdAesMix            0      0.00%     65.99% # Number of instructions issued per FU type, per thread (Count)
system.cpu.statIssuedInstType_0::SimdSha1Hash            0      0.00%     65.99% # Number of instructions issued per FU type, per thread (Count)
system.cpu.statIssuedInstType_0::SimdSha1Hash2            0      0.00%     65.99% # Number of instructions issued per FU type, per thread (Count)
system.cpu.statIssuedInstType_0::SimdSha256Hash            0      0.00%     65.99% # Number of instructions issued per FU type, per thread (Count)
system.cpu.statIssuedInstType_0::SimdSha256Hash2            0      0.00%     65.99% # Number of instructions issued per FU type, per thread (Count)
system.cpu.statIssuedInstType_0::SimdShaSigma2            0      0.00%     65.99% # Number of instructions issued per FU type, per thread (Count)
system.cpu.statIssuedInstType_0::SimdShaSigma3            0      0.00%     65.99% # Number of instructions issued per FU type, per thread (Count)
system.cpu.statIssuedInstType_0::SimdPredAlu            0      0.00%     65.99% # Number of instructions issued per FU type, per thread (Count)
system.cpu.statIssuedInstType_0::MemRead      5993981     16.78%     82.77% # Number of instructions issued per FU type, per thread (Count)
system.cpu.statIssuedInstType_0::MemWrite      3074789      8.61%     91.38% # Number of instructions issued per FU type, per thread (Count)
system.cpu.statIssuedInstType_0::FloatMemRead      2047169      5.73%     97.11% # Number of instructions issued per FU type, per thread (Count)
system.cpu.statIssuedInstType_0::FloatMemWrite      1032483      2.89%    100.00% # Number of instructions issued per FU type, per thread (Count)
system.cpu.statIssuedInstType_0::IprAccess            0      0.00%    100.00% # Number of instructions issued per FU type, per thread (Count)
system.cpu.statIssuedInstType_0::InstPrefetch            0      0.00%    100.00% # Number of instructions issued per FU type, per thread (Count)
system.cpu.statIssuedInstType_0::total       35721323                       # Number of instructions issued per FU type, per thread (Count)
system.cpu.issueRate                         3.324733                       # Inst issue rate ((Count/Cycle))
system.cpu.fuBusy                              603735                       # FU busy when requested (Count)
system.cpu.fuBusyRate                        0.016901                       # FU busy rate (busy events/executed inst) ((Count/Count))
system.cpu.intInstQueueReads                 72344920                       # Number of integer instruction queue reads (Count)
system.cpu.intInstQueueWrites                31204010                       # Number of integer instruction queue writes (Count)
system.cpu.intInstQueueWakeupAccesses        30503124                       # Number of integer instruction queue wakeup accesses (Count)
system.cpu.fpInstQueueReads                  10347923                       # Number of floating instruction queue reads (Count)
system.cpu.fpInstQueueWrites                  5186396                       # Number of floating instruction queue writes (Count)
system.cpu.fpInstQueueWakeupAccesses          5160363                       # Number of floating instruction queue wakeup accesses (Count)
system.cpu.vecInstQueueReads                        0                       # Number of vector instruction queue reads (Count)
system.cpu.vecInstQueueWrites                       0                       # Number of vector instruction queue writes (Count)
system.cpu.vecInstQueueWakeupAccesses               0                       # Number of vector instruction queue wakeup accesses (Count)
system.cpu.intAluAccesses                    30553027                       # Number of integer alu accesses (Count)
system.cpu.fpAluAccesses                      5177912                       # Number of floating point alu accesses (Count)
system.cpu.vecAluAccesses                           0                       # Number of vector alu accesses (Count)
system.cpu.numInsts                          35688730                       # Number of executed instructions (Count)
system.cpu.numLoadInsts                       8036647                       # Number of load instructions executed (Count)
system.cpu.numSquashedInsts                     32593                       # Number of squashed instructions skipped in execute (Count)
system.cpu.numSwp                                   0                       # Number of swp insts executed (Count)
system.cpu.numNop                                   0                       # Number of nop insts executed (Count)
system.cpu.numRefs                           12139996                       # Number of memory reference insts executed (Count)
system.cpu.numBranches                        3313256                       # Number of branches executed (Count)
system.cpu.numStoreInsts                      4103349                       # Number of stores executed (Count)
system.cpu.numRate                           3.321699                       # Inst execution rate ((Count/Cycle))
system.cpu.timesIdled                             888                       # Number of times that the entire CPU went into an idle state and unscheduled itself (Count)
system.cpu.idleCycles                           98991                       # Total number of cycles that the CPU has spent unscheduled due to idling (Cycle)
system.cpu.committedInsts                    19928450                       # Number of Instructions Simulated (Count)
system.cpu.committedOps                      35336477                       # Number of Ops (including micro ops) Simulated (Count)
system.cpu.cpi                               0.539135                       # CPI: Cycles Per Instruction ((Cycle/Count))
system.cpu.totalCpi                          0.539135                       # CPI: Total CPI of All Threads ((Cycle/Count))
system.cpu.ipc                               1.854824                       # IPC: Instructions Per Cycle ((Count/Cycle))
system.cpu.totalIpc                          1.854824                       # IPC: Total IPC of All Threads ((Count/Cycle))
system.cpu.intRegfileReads                   55760859                       # Number of integer regfile reads (Count)
system.cpu.intRegfileWrites                  24159412                       # Number of integer regfile writes (Count)
system.cpu.fpRegfileReads                     2181006                       # Number of floating regfile reads (Count)
system.cpu.fpRegfileWrites                    3610993                       # Number of floating regfile writes (Count)
system.cpu.ccRegfileReads                    10404740                       # number of cc regfile reads (Count)
system.cpu.ccRegfileWrites                    5890784                       # number of cc regfile writes (Count)
system.cpu.miscRegfileReads                  18230971                       # number of misc regfile reads (Count)
system.cpu.miscRegfileWrites                       18                       # number of misc regfile writes (Count)
system.cpu.MemDepUnit__0.insertedLoads        8057564                       # Number of loads inserted to the mem dependence unit. (Count)
system.cpu.MemDepUnit__0.insertedStores       4113016                       # Number of stores inserted to the mem dependence unit. (Count)
system.cpu.MemDepUnit__0.conflictingLoads      2573342                       # Number of conflicting loads. (Count)
system.cpu.MemDepUnit__0.conflictingStores       585132                       # Number of conflicting stores. (Count)
system.cpu.MemDepUnit__1.insertedLoads              0                       # Number of loads inserted to the mem dependence unit. (Count)
system.cpu.MemDepUnit__1.insertedStores             0                       # Number of stores inserted to the mem dependence unit. (Count)
system.cpu.MemDepUnit__1.conflictingLoads            0                       # Number of conflicting loads. (Count)
system.cpu.MemDepUnit__1.conflictingStores            0                       # Number of conflicting stores. (Count)
system.cpu.MemDepUnit__2.insertedLoads              0                       # Number of loads inserted to the mem dependence unit. (Count)
system.cpu.MemDepUnit__2.insertedStores             0                       # Number of stores inserted to the mem dependence unit. (Count)
system.cpu.MemDepUnit__2.conflictingLoads            0                       # Number of conflicting loads. (Count)
system.cpu.MemDepUnit__2.conflictingStores            0                       # Number of conflicting stores. (Count)
system.cpu.MemDepUnit__3.insertedLoads              0                       # Number of loads inserted to the mem dependence unit. (Count)
system.cpu.MemDepUnit__3.insertedStores             0                       # Number of stores inserted to the mem dependence unit. (Count)
system.cpu.MemDepUnit__3.conflictingLoads            0                       # Number of conflicting loads. (Count)
system.cpu.MemDepUnit__3.conflictingStores            0                       # Number of conflicting stores. (Count)
system.cpu.branchPred.lookups                 3381384                       # Number of BP lookups (Count)
system.cpu.branchPred.condPredicted           1646060                       # Number of conditional branches predicted (Count)
system.cpu.branchPred.condIncorrect             14909                       # Number of conditional branches incorrect (Count)
system.cpu.branchPred.BTBLookups              1382003                       # Number of BTB lookups (Count)
system.cpu.branchPred.BTBHits                 1377807                       # Number of BTB hits (Count)
system.cpu.branchPred.BTBHitRatio            0.996964                       # BTB Hit Ratio (Ratio)
system.cpu.branchPred.RASUsed                  572641                       # Number of times the RAS was used to get a target. (Count)
system.cpu.branchPred.RASIncorrect                995                       # Number of incorrect RAS predictions. (Count)
system.cpu.branchPred.indirectLookups          531256                       # Number of indirect predictor lookups. (Count)
system.cpu.branchPred.indirectHits             529750                       # Number of indirect target hits. (Count)
system.cpu.branchPred.indirectMisses             1506                       # Number of indirect misses. (Count)
system.cpu.branchPred.indirectMispredicted          314                       # Number of mispredicted indirect branches. (Count)
system.cpu.commit.commitSquashedInsts          494480                       # The number of squashed insts skipped by commit (Count)
system.cpu.commit.commitNonSpecStalls              18                       # The number of times commit has been forced to stall to communicate backwards (Count)
system.cpu.commit.branchMispredicts             13646                       # The number of times a branch was mispredicted (Count)
system.cpu.commit.numCommittedDist::samples     10573452                       # Number of insts commited each cycle (Count)
system.cpu.commit.numCommittedDist::mean     3.342000                       # Number of insts commited each cycle (Count)
system.cpu.commit.numCommittedDist::stdev     3.108326                       # Number of insts commited each cycle (Count)
system.cpu.commit.numCommittedDist::underflows            0      0.00%      0.00% # Number of insts commited each cycle (Count)
system.cpu.commit.numCommittedDist::0         2848168     26.94%     26.94% # Number of insts commited each cycle (Count)
system.cpu.commit.numCommittedDist::1          804344      7.61%     34.54% # Number of insts commited each cycle (Count)
system.cpu.commit.numCommittedDist::2         1839565     17.40%     51.94% # Number of insts commited each cycle (Count)
system.cpu.commit.numCommittedDist::3         1294115     12.24%     64.18% # Number of insts commited each cycle (Count)
system.cpu.commit.numCommittedDist::4          604195      5.71%     69.90% # Number of insts commited each cycle (Count)
system.cpu.commit.numCommittedDist::5           97988      0.93%     70.82% # Number of insts commited each cycle (Count)
system.cpu.commit.numCommittedDist::6           65355      0.62%     71.44% # Number of insts commited each cycle (Count)
system.cpu.commit.numCommittedDist::7          485968      4.60%     76.04% # Number of insts commited each cycle (Count)
system.cpu.commit.numCommittedDist::8         2533754     23.96%    100.00% # Number of insts commited each cycle (Count)
system.cpu.commit.numCommittedDist::overflows            0      0.00%    100.00% # Number of insts commited each cycle (Count)
system.cpu.commit.numCommittedDist::min_value            0                       # Number of insts commited each cycle (Count)
system.cpu.commit.numCommittedDist::max_value            8                       # Number of insts commited each cycle (Count)
system.cpu.commit.numCommittedDist::total     10573452                       # Number of insts commited each cycle (Count)
system.cpu.commit.instsCommitted             19928450                       # Number of instructions committed (Count)
system.cpu.commit.opsCommitted               35336477                       # Number of ops (including micro ops) committed (Count)
system.cpu.commit.memRefs                    12069539                       # Number of memory references committed (Count)
system.cpu.commit.loads                       7978510                       # Number of loads committed (Count)
system.cpu.commit.amos                              0                       # Number of atomic instructions committed (Count)
system.cpu.commit.membars                           0                       # Number of memory barriers committed (Count)
system.cpu.commit.branches                    3283692                       # Number of branches committed (Count)
system.cpu.commit.vectorInstructions                0                       # Number of committed Vector instructions. (Count)
system.cpu.commit.floating                    5154398                       # Number of committed floating point instructions. (Count)
system.cpu.commit.integer                    32657360                       # Number of committed integer instructions. (Count)
system.cpu.commit.functionCalls                563369                       # Number of function calls committed. (Count)
system.cpu.commit.committedInstType_0::No_OpClass       589130      1.67%      1.67% # Class of committed instruction (Count)
system.cpu.commit.committedInstType_0::IntAlu     20030633     56.69%     58.35% # Class of committed instruction (Count)
system.cpu.commit.committedInstType_0::IntMult       516165      1.46%     59.81% # Class of committed instruction (Count)
system.cpu.commit.committedInstType_0::IntDiv        53994      0.15%     59.97% # Class of committed instruction (Count)
system.cpu.commit.committedInstType_0::FloatAdd      1513865      4.28%     64.25% # Class of committed instruction (Count)
system.cpu.commit.committedInstType_0::FloatCmp            0      0.00%     64.25% # Class of committed instruction (Count)
system.cpu.commit.committedInstType_0::FloatCvt           32      0.00%     64.25% # Class of committed instruction (Count)
system.cpu.commit.committedInstType_0::FloatMult            0      0.00%     64.25% # Class of committed instruction (Count)
system.cpu.commit.committedInstType_0::FloatMultAcc            0      0.00%     64.25% # Class of committed instruction (Count)
system.cpu.commit.committedInstType_0::FloatDiv            0      0.00%     64.25% # Class of committed instruction (Count)
system.cpu.commit.committedInstType_0::FloatMisc            0      0.00%     64.25% # Class of committed instruction (Count)
system.cpu.commit.committedInstType_0::FloatSqrt            0      0.00%     64.25% # Class of committed instruction (Count)
system.cpu.commit.committedInstType_0::SimdAdd          326      0.00%     64.25% # Class of committed instruction (Count)
system.cpu.commit.committedInstType_0::SimdAddAcc            0      0.00%     64.25% # Class of committed instruction (Count)
system.cpu.commit.committedInstType_0::SimdAlu        18662      0.05%     64.30% # Class of committed instruction (Count)
system.cpu.commit.committedInstType_0::SimdCmp            6      0.00%     64.30% # Class of committed instruction (Count)
system.cpu.commit.committedInstType_0::SimdCvt        10720      0.03%     64.33% # Class of committed instruction (Count)
system.cpu.commit.committedInstType_0::SimdMisc        24821      0.07%     64.40% # Class of committed instruction (Count)
system.cpu.commit.committedInstType_0::SimdMult            0      0.00%     64.40% # Class of committed instruction (Count)
system.cpu.commit.committedInstType_0::SimdMultAcc            0      0.00%     64.40% # Class of committed instruction (Count)
system.cpu.commit.committedInstType_0::SimdShift           90      0.00%     64.40% # Class of committed instruction (Count)
system.cpu.commit.committedInstType_0::SimdShiftAcc            0      0.00%     64.40% # Class of committed instruction (Count)
system.cpu.commit.committedInstType_0::SimdDiv            0      0.00%     64.40% # Class of committed instruction (Count)
system.cpu.commit.committedInstType_0::SimdSqrt            0      0.00%     64.40% # Class of committed instruction (Count)
system.cpu.commit.committedInstType_0::SimdFloatAdd            0      0.00%     64.40% # Class of committed instruction (Count)
system.cpu.commit.committedInstType_0::SimdFloatAlu            0      0.00%     64.40% # Class of committed instruction (Count)
system.cpu.commit.committedInstType_0::SimdFloatCmp            0      0.00%     64.40% # Class of committed instruction (Count)
system.cpu.commit.committedInstType_0::SimdFloatCvt       508494      1.44%     65.84% # Class of committed instruction (Count)
system.cpu.commit.committedInstType_0::SimdFloatDiv            0      0.00%     65.84% # Class of committed instruction (Count)
system.cpu.commit.committedInstType_0::SimdFloatMisc            0      0.00%     65.84% # Class of committed instruction (Count)
system.cpu.commit.committedInstType_0::SimdFloatMult            0      0.00%     65.84% # Class of committed instruction (Count)
system.cpu.commit.committedInstType_0::SimdFloatMultAcc            0      0.00%     65.84% # Class of committed instruction (Count)
system.cpu.commit.committedInstType_0::SimdFloatSqrt            0      0.00%     65.84% # Class of committed instruction (Count)
system.cpu.commit.committedInstType_0::SimdReduceAdd            0      0.00%     65.84% # Class of committed instruction (Count)
system.cpu.commit.committedInstType_0::SimdReduceAlu            0      0.00%     65.84% # Class of committed instruction (Count)
system.cpu.commit.committedInstType_0::SimdReduceCmp            0      0.00%     65.84% # Class of committed instruction (Count)
system.cpu.commit.committedInstType_0::SimdFloatReduceAdd            0      0.00%     65.84% # Class of committed instruction (Count)
system.cpu.commit.committedInstType_0::SimdFloatReduceCmp            0      0.00%     65.84% # Class of committed instruction (Count)
system.cpu.commit.committedInstType_0::SimdAes            0      0.00%     65.84% # Class of committed instruction (Count)
system.cpu.commit.committedInstType_0::SimdAesMix            0      0.00%     65.84% # Class of committed instruction (Count)
system.cpu.commit.committedInstType_0::SimdSha1Hash            0      0.00%     65.84% # Class of committed instruction (Count)
system.cpu.commit.committedInstType_0::SimdSha1Hash2            0      0.00%     65.84% # Class of committed instruction (Count)
system.cpu.commit.committedInstType_0::SimdSha256Hash            0      0.00%     65.84% # Class of committed instruction (Count)
system.cpu.commit.committedInstType_0::SimdSha256Hash2            0      0.00%     65.84% # Class of committed instruction (Count)
system.cpu.commit.committedInstType_0::SimdShaSigma2            0      0.00%     65.84% # Class of committed instruction (Count)
system.cpu.commit.committedInstType_0::SimdShaSigma3            0      0.00%     65.84% # Class of committed instruction (Count)
system.cpu.commit.committedInstType_0::SimdPredAlu            0      0.00%     65.84% # Class of committed instruction (Count)
system.cpu.commit.committedInstType_0::MemRead      5941599     16.81%     82.66% # Class of committed instruction (Count)
system.cpu.commit.committedInstType_0::MemWrite      3058838      8.66%     91.31% # Class of committed instruction (Count)
system.cpu.commit.committedInstType_0::FloatMemRead      2036911      5.76%     97.08% # Class of committed instruction (Count)
system.cpu.commit.committedInstType_0::FloatMemWrite      1032191      2.92%    100.00% # Class of committed instruction (Count)
system.cpu.commit.committedInstType_0::IprAccess            0      0.00%    100.00% # Class of committed instruction (Count)
system.cpu.commit.committedInstType_0::InstPrefetch            0      0.00%    100.00% # Class of committed instruction (Count)
system.cpu.commit.committedInstType_0::total     35336477                       # Class of committed instruction (Count)
system.cpu.commit.commitEligibleSamples       2533754                       # number cycles where commit BW limit reached (Cycle)
system.cpu.dcache.demandHits::cpu.data        7875070                       # number of demand (read+write) hits (Count)
system.cpu.dcache.demandHits::total           7875070                       # number of demand (read+write) hits (Count)
system.cpu.dcache.overallHits::cpu.data       7875070                       # number of overall hits (Count)
system.cpu.dcache.overallHits::total          7875070                       # number of overall hits (Count)
system.cpu.dcache.demandMisses::cpu.data        27154                       # number of demand (read+write) misses (Count)
system.cpu.dcache.demandMisses::total           27154                       # number of demand (read+write) misses (Count)
system.cpu.dcache.overallMisses::cpu.data        27154                       # number of overall misses (Count)
system.cpu.dcache.overallMisses::total          27154                       # number of overall misses (Count)
system.cpu.dcache.demandMissLatency::cpu.data   1554827500                       # number of demand (read+write) miss ticks (Tick)
system.cpu.dcache.demandMissLatency::total   1554827500                       # number of demand (read+write) miss ticks (Tick)
system.cpu.dcache.overallMissLatency::cpu.data   1554827500                       # number of overall miss ticks (Tick)
system.cpu.dcache.overallMissLatency::total   1554827500                       # number of overall miss ticks (Tick)
system.cpu.dcache.demandAccesses::cpu.data      7902224                       # number of demand (read+write) accesses (Count)
system.cpu.dcache.demandAccesses::total       7902224                       # number of demand (read+write) accesses (Count)
system.cpu.dcache.overallAccesses::cpu.data      7902224                       # number of overall (read+write) accesses (Count)
system.cpu.dcache.overallAccesses::total      7902224                       # number of overall (read+write) accesses (Count)
system.cpu.dcache.demandMissRate::cpu.data     0.003436                       # miss rate for demand accesses (Ratio)
system.cpu.dcache.demandMissRate::total      0.003436                       # miss rate for demand accesses (Ratio)
system.cpu.dcache.overallMissRate::cpu.data     0.003436                       # miss rate for overall accesses (Ratio)
system.cpu.dcache.overallMissRate::total     0.003436                       # miss rate for overall accesses (Ratio)
system.cpu.dcache.demandAvgMissLatency::cpu.data 57259.611844                       # average overall miss latency ((Cycle/Count))
system.cpu.dcache.demandAvgMissLatency::total 57259.611844                       # average overall miss latency ((Cycle/Count))
system.cpu.dcache.overallAvgMissLatency::cpu.data 57259.611844                       # average overall miss latency ((Cycle/Count))
system.cpu.dcache.overallAvgMissLatency::total 57259.611844                       # average overall miss latency ((Cycle/Count))
system.cpu.dcache.blockedCycles::no_mshrs        17412                       # number of cycles access was blocked (Cycle)
system.cpu.dcache.blockedCycles::no_targets            0                       # number of cycles access was blocked (Cycle)
system.cpu.dcache.blockedCauses::no_mshrs          336                       # number of times access was blocked (Count)
system.cpu.dcache.blockedCauses::no_targets            0                       # number of times access was blocked (Count)
system.cpu.dcache.avgBlocked::no_mshrs      51.821429                       # average number of cycles each access was blocked ((Cycle/Count))
system.cpu.dcache.avgBlocked::no_targets          nan                       # average number of cycles each access was blocked ((Cycle/Count))
system.cpu.dcache.writebacks::writebacks         5691                       # number of writebacks (Count)
system.cpu.dcache.writebacks::total              5691                       # number of writebacks (Count)
system.cpu.dcache.demandMshrHits::cpu.data        18743                       # number of demand (read+write) MSHR hits (Count)
system.cpu.dcache.demandMshrHits::total         18743                       # number of demand (read+write) MSHR hits (Count)
system.cpu.dcache.overallMshrHits::cpu.data        18743                       # number of overall MSHR hits (Count)
system.cpu.dcache.overallMshrHits::total        18743                       # number of overall MSHR hits (Count)
system.cpu.dcache.demandMshrMisses::cpu.data         8411                       # number of demand (read+write) MSHR misses (Count)
system.cpu.dcache.demandMshrMisses::total         8411                       # number of demand (read+write) MSHR misses (Count)
system.cpu.dcache.overallMshrMisses::cpu.data         8411                       # number of overall MSHR misses (Count)
system.cpu.dcache.overallMshrMisses::total         8411                       # number of overall MSHR misses (Count)
system.cpu.dcache.demandMshrMissLatency::cpu.data    576011000                       # number of demand (read+write) MSHR miss ticks (Tick)
system.cpu.dcache.demandMshrMissLatency::total    576011000                       # number of demand (read+write) MSHR miss ticks (Tick)
system.cpu.dcache.overallMshrMissLatency::cpu.data    576011000                       # number of overall MSHR miss ticks (Tick)
system.cpu.dcache.overallMshrMissLatency::total    576011000                       # number of overall MSHR miss ticks (Tick)
system.cpu.dcache.demandMshrMissRate::cpu.data     0.001064                       # mshr miss ratio for demand accesses (Ratio)
system.cpu.dcache.demandMshrMissRate::total     0.001064                       # mshr miss ratio for demand accesses (Ratio)
system.cpu.dcache.overallMshrMissRate::cpu.data     0.001064                       # mshr miss ratio for overall accesses (Ratio)
system.cpu.dcache.overallMshrMissRate::total     0.001064                       # mshr miss ratio for overall accesses (Ratio)
system.cpu.dcache.demandAvgMshrMissLatency::cpu.data 68483.057900                       # average overall mshr miss latency ((Cycle/Count))
system.cpu.dcache.demandAvgMshrMissLatency::total 68483.057900                       # average overall mshr miss latency ((Cycle/Count))
system.cpu.dcache.overallAvgMshrMissLatency::cpu.data 68483.057900                       # average overall mshr miss latency ((Cycle/Count))
system.cpu.dcache.overallAvgMshrMissLatency::total 68483.057900                       # average overall mshr miss latency ((Cycle/Count))
system.cpu.dcache.replacements                   7386                       # number of replacements (Count)
system.cpu.dcache.ReadReq.hits::cpu.data      3786719                       # number of ReadReq hits (Count)
system.cpu.dcache.ReadReq.hits::total         3786719                       # number of ReadReq hits (Count)
system.cpu.dcache.ReadReq.misses::cpu.data        24476                       # number of ReadReq misses (Count)
system.cpu.dcache.ReadReq.misses::total         24476                       # number of ReadReq misses (Count)
system.cpu.dcache.ReadReq.missLatency::cpu.data   1419608500                       # number of ReadReq miss ticks (Tick)
system.cpu.dcache.ReadReq.missLatency::total   1419608500                       # number of ReadReq miss ticks (Tick)
system.cpu.dcache.ReadReq.accesses::cpu.data      3811195                       # number of ReadReq accesses(hits+misses) (Count)
system.cpu.dcache.ReadReq.accesses::total      3811195                       # number of ReadReq accesses(hits+misses) (Count)
system.cpu.dcache.ReadReq.missRate::cpu.data     0.006422                       # miss rate for ReadReq accesses (Ratio)
system.cpu.dcache.ReadReq.missRate::total     0.006422                       # miss rate for ReadReq accesses (Ratio)
system.cpu.dcache.ReadReq.avgMissLatency::cpu.data 58000.020428                       # average ReadReq miss latency ((Tick/Count))
system.cpu.dcache.ReadReq.avgMissLatency::total 58000.020428                       # average ReadReq miss latency ((Tick/Count))
system.cpu.dcache.ReadReq.mshrHits::cpu.data        17763                       # number of ReadReq MSHR hits (Count)
system.cpu.dcache.ReadReq.mshrHits::total        17763                       # number of ReadReq MSHR hits (Count)
system.cpu.dcache.ReadReq.mshrMisses::cpu.data         6713                       # number of ReadReq MSHR misses (Count)
system.cpu.dcache.ReadReq.mshrMisses::total         6713                       # number of ReadReq MSHR misses (Count)
system.cpu.dcache.ReadReq.mshrMissLatency::cpu.data    449231000                       # number of ReadReq MSHR miss ticks (Tick)
system.cpu.dcache.ReadReq.mshrMissLatency::total    449231000                       # number of ReadReq MSHR miss ticks (Tick)
system.cpu.dcache.ReadReq.mshrMissRate::cpu.data     0.001761                       # mshr miss rate for ReadReq accesses (Ratio)
system.cpu.dcache.ReadReq.mshrMissRate::total     0.001761                       # mshr miss rate for ReadReq accesses (Ratio)
system.cpu.dcache.ReadReq.avgMshrMissLatency::cpu.data 66919.559065                       # average ReadReq mshr miss latency ((Tick/Count))
system.cpu.dcache.ReadReq.avgMshrMissLatency::total 66919.559065                       # average ReadReq mshr miss latency ((Tick/Count))
system.cpu.dcache.WriteReq.hits::cpu.data      4088351                       # number of WriteReq hits (Count)
system.cpu.dcache.WriteReq.hits::total        4088351                       # number of WriteReq hits (Count)
system.cpu.dcache.WriteReq.misses::cpu.data         2678                       # number of WriteReq misses (Count)
system.cpu.dcache.WriteReq.misses::total         2678                       # number of WriteReq misses (Count)
system.cpu.dcache.WriteReq.missLatency::cpu.data    135219000                       # number of WriteReq miss ticks (Tick)
system.cpu.dcache.WriteReq.missLatency::total    135219000                       # number of WriteReq miss ticks (Tick)
system.cpu.dcache.WriteReq.accesses::cpu.data      4091029                       # number of WriteReq accesses(hits+misses) (Count)
system.cpu.dcache.WriteReq.accesses::total      4091029                       # number of WriteReq accesses(hits+misses) (Count)
system.cpu.dcache.WriteReq.missRate::cpu.data     0.000655                       # miss rate for WriteReq accesses (Ratio)
system.cpu.dcache.WriteReq.missRate::total     0.000655                       # miss rate for WriteReq accesses (Ratio)
system.cpu.dcache.WriteReq.avgMissLatency::cpu.data 50492.531740                       # average WriteReq miss latency ((Tick/Count))
system.cpu.dcache.WriteReq.avgMissLatency::total 50492.531740                       # average WriteReq miss latency ((Tick/Count))
system.cpu.dcache.WriteReq.mshrHits::cpu.data          980                       # number of WriteReq MSHR hits (Count)
system.cpu.dcache.WriteReq.mshrHits::total          980                       # number of WriteReq MSHR hits (Count)
system.cpu.dcache.WriteReq.mshrMisses::cpu.data         1698                       # number of WriteReq MSHR misses (Count)
system.cpu.dcache.WriteReq.mshrMisses::total         1698                       # number of WriteReq MSHR misses (Count)
system.cpu.dcache.WriteReq.mshrMissLatency::cpu.data    126780000                       # number of WriteReq MSHR miss ticks (Tick)
system.cpu.dcache.WriteReq.mshrMissLatency::total    126780000                       # number of WriteReq MSHR miss ticks (Tick)
system.cpu.dcache.WriteReq.mshrMissRate::cpu.data     0.000415                       # mshr miss rate for WriteReq accesses (Ratio)
system.cpu.dcache.WriteReq.mshrMissRate::total     0.000415                       # mshr miss rate for WriteReq accesses (Ratio)
system.cpu.dcache.WriteReq.avgMshrMissLatency::cpu.data 74664.310954                       # average WriteReq mshr miss latency ((Tick/Count))
system.cpu.dcache.WriteReq.avgMshrMissLatency::total 74664.310954                       # average WriteReq mshr miss latency ((Tick/Count))
system.cpu.dcache.power_state.pwrStateResidencyTicks::UNDEFINED   5372058500                       # Cumulative time (in ticks) in various power states (Tick)
system.cpu.dcache.tags.tagsInUse          1013.533220                       # Average ticks per tags in use ((Tick/Count))
system.cpu.dcache.tags.totalRefs              7883481                       # Total number of references to valid blocks. (Count)
system.cpu.dcache.tags.sampledRefs               8410                       # Sample count of references to valid blocks. (Count)
system.cpu.dcache.tags.avgRefs             937.393698                       # Average number of references to valid blocks. ((Count/Count))
system.cpu.dcache.tags.warmupTick              168000                       # The tick when the warmup percentage was hit. (Tick)
system.cpu.dcache.tags.occupancies::cpu.data  1013.533220                       # Average occupied blocks per tick, per requestor ((Count/Tick))
system.cpu.dcache.tags.avgOccs::cpu.data     0.989779                       # Average percentage of cache occupancy ((Ratio/Tick))
system.cpu.dcache.tags.avgOccs::total        0.989779                       # Average percentage of cache occupancy ((Ratio/Tick))
system.cpu.dcache.tags.occupanciesTaskId::1024         1024                       # Occupied blocks per task id (Count)
system.cpu.dcache.tags.ageTaskId_1024::0           45                       # Occupied blocks per task id, per block age (Count)
system.cpu.dcache.tags.ageTaskId_1024::1           13                       # Occupied blocks per task id, per block age (Count)
system.cpu.dcache.tags.ageTaskId_1024::2          966                       # Occupied blocks per task id, per block age (Count)
system.cpu.dcache.tags.ratioOccsTaskId::1024            1                       # Ratio of occupied blocks and all blocks, per task id (Ratio)
system.cpu.dcache.tags.tagAccesses           31617306                       # Number of tag accesses (Count)
system.cpu.dcache.tags.dataAccesses          31617306                       # Number of data accesses (Count)
system.cpu.dcache.tags.power_state.pwrStateResidencyTicks::UNDEFINED   5372058500                       # Cumulative time (in ticks) in various power states (Tick)
system.cpu.decode.idleCycles                  3642336                       # Number of cycles decode is idle (Cycle)
system.cpu.decode.blockedCycles                691758                       # Number of cycles decode is blocked (Cycle)
system.cpu.decode.runCycles                   6213338                       # Number of cycles decode is running (Cycle)
system.cpu.decode.unblockCycles                 82480                       # Number of cycles decode is unblocking (Cycle)
system.cpu.decode.squashCycles                  15215                       # Number of cycles decode is squashing (Cycle)
system.cpu.decode.branchResolved              1374055                       # Number of times decode resolved a branch (Count)
system.cpu.decode.branchMispred                  1622                       # Number of times decode detected a branch misprediction (Count)
system.cpu.decode.decodedInsts               36041675                       # Number of instructions handled by decode (Count)
system.cpu.decode.squashedInsts                  3870                       # Number of squashed instructions handled by decode (Count)
system.cpu.fetch.icacheStallCycles            3708804                       # Number of cycles fetch is stalled on an Icache miss (Cycle)
system.cpu.fetch.insts                       20361820                       # Number of instructions fetch has processed (Count)
system.cpu.fetch.branches                     3381384                       # Number of branches that fetch encountered (Count)
system.cpu.fetch.predictedBranches            2480198                       # Number of branches that fetch has predicted taken (Count)
system.cpu.fetch.cycles                       6916343                       # Number of cycles fetch has run and was not squashing or blocked (Cycle)
system.cpu.fetch.squashCycles                   33648                       # Number of cycles fetch has spent squashing (Cycle)
system.cpu.fetch.miscStallCycles                  377                       # Number of cycles fetch has spent waiting on interrupts, or bad addresses, or out of MSHRs (Cycle)
system.cpu.fetch.pendingTrapStallCycles          2628                       # Number of stall cycles due to pending traps (Cycle)
system.cpu.fetch.pendingQuiesceStallCycles          132                       # Number of stall cycles due to pending quiesce instructions (Cycle)
system.cpu.fetch.icacheWaitRetryStallCycles           19                       # Number of stall cycles due to full MSHR (Cycle)
system.cpu.fetch.cacheLines                   3660019                       # Number of cache lines fetched (Count)
system.cpu.fetch.icacheSquashes                  5471                       # Number of outstanding Icache misses that were squashed (Count)
system.cpu.fetch.nisnDist::samples           10645127                       # Number of instructions fetched each cycle (Total) (Count)
system.cpu.fetch.nisnDist::mean              3.396448                       # Number of instructions fetched each cycle (Total) (Count)
system.cpu.fetch.nisnDist::stdev             3.481350                       # Number of instructions fetched each cycle (Total) (Count)
system.cpu.fetch.nisnDist::underflows               0      0.00%      0.00% # Number of instructions fetched each cycle (Total) (Count)
system.cpu.fetch.nisnDist::0                  4272965     40.14%     40.14% # Number of instructions fetched each cycle (Total) (Count)
system.cpu.fetch.nisnDist::1                  1088083     10.22%     50.36% # Number of instructions fetched each cycle (Total) (Count)
system.cpu.fetch.nisnDist::2                   105335      0.99%     51.35% # Number of instructions fetched each cycle (Total) (Count)
system.cpu.fetch.nisnDist::3                   128376      1.21%     52.56% # Number of instructions fetched each cycle (Total) (Count)
system.cpu.fetch.nisnDist::4                  1095834     10.29%     62.85% # Number of instructions fetched each cycle (Total) (Count)
system.cpu.fetch.nisnDist::5                    96270      0.90%     63.76% # Number of instructions fetched each cycle (Total) (Count)
system.cpu.fetch.nisnDist::6                   584789      5.49%     69.25% # Number of instructions fetched each cycle (Total) (Count)
system.cpu.fetch.nisnDist::7                    89484      0.84%     70.09% # Number of instructions fetched each cycle (Total) (Count)
system.cpu.fetch.nisnDist::8                  3183991     29.91%    100.00% # Number of instructions fetched each cycle (Total) (Count)
system.cpu.fetch.nisnDist::overflows                0      0.00%    100.00% # Number of instructions fetched each cycle (Total) (Count)
system.cpu.fetch.nisnDist::min_value                0                       # Number of instructions fetched each cycle (Total) (Count)
system.cpu.fetch.nisnDist::max_value                8                       # Number of instructions fetched each cycle (Total) (Count)
system.cpu.fetch.nisnDist::total             10645127                       # Number of instructions fetched each cycle (Total) (Count)
system.cpu.fetch.branchRate                  0.314720                       # Number of branch fetches per cycle (Ratio)
system.cpu.fetch.rate                        1.895160                       # Number of inst fetches per cycle ((Count/Cycle))
system.cpu.icache.demandHits::cpu.inst        3658251                       # number of demand (read+write) hits (Count)
system.cpu.icache.demandHits::total           3658251                       # number of demand (read+write) hits (Count)
system.cpu.icache.overallHits::cpu.inst       3658251                       # number of overall hits (Count)
system.cpu.icache.overallHits::total          3658251                       # number of overall hits (Count)
system.cpu.icache.demandMisses::cpu.inst         1768                       # number of demand (read+write) misses (Count)
system.cpu.icache.demandMisses::total            1768                       # number of demand (read+write) misses (Count)
system.cpu.icache.overallMisses::cpu.inst         1768                       # number of overall misses (Count)
system.cpu.icache.overallMisses::total           1768                       # number of overall misses (Count)
system.cpu.icache.demandMissLatency::cpu.inst    127286499                       # number of demand (read+write) miss ticks (Tick)
system.cpu.icache.demandMissLatency::total    127286499                       # number of demand (read+write) miss ticks (Tick)
system.cpu.icache.overallMissLatency::cpu.inst    127286499                       # number of overall miss ticks (Tick)
system.cpu.icache.overallMissLatency::total    127286499                       # number of overall miss ticks (Tick)
system.cpu.icache.demandAccesses::cpu.inst      3660019                       # number of demand (read+write) accesses (Count)
system.cpu.icache.demandAccesses::total       3660019                       # number of demand (read+write) accesses (Count)
system.cpu.icache.overallAccesses::cpu.inst      3660019                       # number of overall (read+write) accesses (Count)
system.cpu.icache.overallAccesses::total      3660019                       # number of overall (read+write) accesses (Count)
system.cpu.icache.demandMissRate::cpu.inst     0.000483                       # miss rate for demand accesses (Ratio)
system.cpu.icache.demandMissRate::total      0.000483                       # miss rate for demand accesses (Ratio)
system.cpu.icache.overallMissRate::cpu.inst     0.000483                       # miss rate for overall accesses (Ratio)
system.cpu.icache.overallMissRate::total     0.000483                       # miss rate for overall accesses (Ratio)
system.cpu.icache.demandAvgMissLatency::cpu.inst 71994.626131                       # average overall miss latency ((Cycle/Count))
system.cpu.icache.demandAvgMissLatency::total 71994.626131                       # average overall miss latency ((Cycle/Count))
system.cpu.icache.overallAvgMissLatency::cpu.inst 71994.626131                       # average overall miss latency ((Cycle/Count))
system.cpu.icache.overallAvgMissLatency::total 71994.626131                       # average overall miss latency ((Cycle/Count))
system.cpu.icache.blockedCycles::no_mshrs          235                       # number of cycles access was blocked (Cycle)
system.cpu.icache.blockedCycles::no_targets            0                       # number of cycles access was blocked (Cycle)
system.cpu.icache.blockedCauses::no_mshrs            4                       # number of times access was blocked (Count)
system.cpu.icache.blockedCauses::no_targets            0                       # number of times access was blocked (Count)
system.cpu.icache.avgBlocked::no_mshrs      58.750000                       # average number of cycles each access was blocked ((Cycle/Count))
system.cpu.icache.avgBlocked::no_targets          nan                       # average number of cycles each access was blocked ((Cycle/Count))
system.cpu.icache.demandMshrHits::cpu.inst          434                       # number of demand (read+write) MSHR hits (Count)
system.cpu.icache.demandMshrHits::total           434                       # number of demand (read+write) MSHR hits (Count)
system.cpu.icache.overallMshrHits::cpu.inst          434                       # number of overall MSHR hits (Count)
system.cpu.icache.overallMshrHits::total          434                       # number of overall MSHR hits (Count)
system.cpu.icache.demandMshrMisses::cpu.inst         1334                       # number of demand (read+write) MSHR misses (Count)
system.cpu.icache.demandMshrMisses::total         1334                       # number of demand (read+write) MSHR misses (Count)
system.cpu.icache.overallMshrMisses::cpu.inst         1334                       # number of overall MSHR misses (Count)
system.cpu.icache.overallMshrMisses::total         1334                       # number of overall MSHR misses (Count)
system.cpu.icache.demandMshrMissLatency::cpu.inst    100127999                       # number of demand (read+write) MSHR miss ticks (Tick)
system.cpu.icache.demandMshrMissLatency::total    100127999                       # number of demand (read+write) MSHR miss ticks (Tick)
system.cpu.icache.overallMshrMissLatency::cpu.inst    100127999                       # number of overall MSHR miss ticks (Tick)
system.cpu.icache.overallMshrMissLatency::total    100127999                       # number of overall MSHR miss ticks (Tick)
system.cpu.icache.demandMshrMissRate::cpu.inst     0.000364                       # mshr miss ratio for demand accesses (Ratio)
system.cpu.icache.demandMshrMissRate::total     0.000364                       # mshr miss ratio for demand accesses (Ratio)
system.cpu.icache.overallMshrMissRate::cpu.inst     0.000364                       # mshr miss ratio for overall accesses (Ratio)
system.cpu.icache.overallMshrMissRate::total     0.000364                       # mshr miss ratio for overall accesses (Ratio)
system.cpu.icache.demandAvgMshrMissLatency::cpu.inst 75058.470015                       # average overall mshr miss latency ((Cycle/Count))
system.cpu.icache.demandAvgMshrMissLatency::total 75058.470015                       # average overall mshr miss latency ((Cycle/Count))
system.cpu.icache.overallAvgMshrMissLatency::cpu.inst 75058.470015                       # average overall mshr miss latency ((Cycle/Count))
system.cpu.icache.overallAvgMshrMissLatency::total 75058.470015                       # average overall mshr miss latency ((Cycle/Count))
system.cpu.icache.replacements                    363                       # number of replacements (Count)
system.cpu.icache.ReadReq.hits::cpu.inst      3658251                       # number of ReadReq hits (Count)
system.cpu.icache.ReadReq.hits::total         3658251                       # number of ReadReq hits (Count)
system.cpu.icache.ReadReq.misses::cpu.inst         1768                       # number of ReadReq misses (Count)
system.cpu.icache.ReadReq.misses::total          1768                       # number of ReadReq misses (Count)
system.cpu.icache.ReadReq.missLatency::cpu.inst    127286499                       # number of ReadReq miss ticks (Tick)
system.cpu.icache.ReadReq.missLatency::total    127286499                       # number of ReadReq miss ticks (Tick)
system.cpu.icache.ReadReq.accesses::cpu.inst      3660019                       # number of ReadReq accesses(hits+misses) (Count)
system.cpu.icache.ReadReq.accesses::total      3660019                       # number of ReadReq accesses(hits+misses) (Count)
system.cpu.icache.ReadReq.missRate::cpu.inst     0.000483                       # miss rate for ReadReq accesses (Ratio)
system.cpu.icache.ReadReq.missRate::total     0.000483                       # miss rate for ReadReq accesses (Ratio)
system.cpu.icache.ReadReq.avgMissLatency::cpu.inst 71994.626131                       # average ReadReq miss latency ((Tick/Count))
system.cpu.icache.ReadReq.avgMissLatency::total 71994.626131                       # average ReadReq miss latency ((Tick/Count))
system.cpu.icache.ReadReq.mshrHits::cpu.inst          434                       # number of ReadReq MSHR hits (Count)
system.cpu.icache.ReadReq.mshrHits::total          434                       # number of ReadReq MSHR hits (Count)
system.cpu.icache.ReadReq.mshrMisses::cpu.inst         1334                       # number of ReadReq MSHR misses (Count)
system.cpu.icache.ReadReq.mshrMisses::total         1334                       # number of ReadReq MSHR misses (Count)
system.cpu.icache.ReadReq.mshrMissLatency::cpu.inst    100127999                       # number of ReadReq MSHR miss ticks (Tick)
system.cpu.icache.ReadReq.mshrMissLatency::total    100127999                       # number of ReadReq MSHR miss ticks (Tick)
system.cpu.icache.ReadReq.mshrMissRate::cpu.inst     0.000364                       # mshr miss rate for ReadReq accesses (Ratio)
system.cpu.icache.ReadReq.mshrMissRate::total     0.000364                       # mshr miss rate for ReadReq accesses (Ratio)
system.cpu.icache.ReadReq.avgMshrMissLatency::cpu.inst 75058.470015                       # average ReadReq mshr miss latency ((Tick/Count))
system.cpu.icache.ReadReq.avgMshrMissLatency::total 75058.470015                       # average ReadReq mshr miss latency ((Tick/Count))
system.cpu.icache.power_state.pwrStateResidencyTicks::UNDEFINED   5372058500                       # Cumulative time (in ticks) in various power states (Tick)
system.cpu.icache.tags.tagsInUse           794.298139                       # Average ticks per tags in use ((Tick/Count))
system.cpu.icache.tags.totalRefs              3659584                       # Total number of references to valid blocks. (Count)
system.cpu.icache.tags.sampledRefs               1333                       # Sample count of references to valid blocks. (Count)
system.cpu.icache.tags.avgRefs            2745.374344                       # Average number of references to valid blocks. ((Count/Count))
system.cpu.icache.tags.warmupTick               82000                       # The tick when the warmup percentage was hit. (Tick)
system.cpu.icache.tags.occupancies::cpu.inst   794.298139                       # Average occupied blocks per tick, per requestor ((Count/Tick))
system.cpu.icache.tags.avgOccs::cpu.inst     0.775682                       # Average percentage of cache occupancy ((Ratio/Tick))
system.cpu.icache.tags.avgOccs::total        0.775682                       # Average percentage of cache occupancy ((Ratio/Tick))
system.cpu.icache.tags.occupanciesTaskId::1024          969                       # Occupied blocks per task id (Count)
system.cpu.icache.tags.ageTaskId_1024::0           89                       # Occupied blocks per task id, per block age (Count)
system.cpu.icache.tags.ageTaskId_1024::2          349                       # Occupied blocks per task id, per block age (Count)
system.cpu.icache.tags.ageTaskId_1024::3          531                       # Occupied blocks per task id, per block age (Count)
system.cpu.icache.tags.ratioOccsTaskId::1024     0.946289                       # Ratio of occupied blocks and all blocks, per task id (Ratio)
system.cpu.icache.tags.tagAccesses           14641409                       # Number of tag accesses (Count)
system.cpu.icache.tags.dataAccesses          14641409                       # Number of data accesses (Count)
system.cpu.icache.tags.power_state.pwrStateResidencyTicks::UNDEFINED   5372058500                       # Cumulative time (in ticks) in various power states (Tick)
system.cpu.iew.idleCycles                           0                       # Number of cycles IEW is idle (Cycle)
system.cpu.iew.squashCycles                     15215                       # Number of cycles IEW is squashing (Cycle)
system.cpu.iew.blockCycles                     250475                       # Number of cycles IEW is blocking (Cycle)
system.cpu.iew.unblockCycles                     9962                       # Number of cycles IEW is unblocking (Cycle)
system.cpu.iew.dispatchedInsts               35863193                       # Number of instructions dispatched to IQ (Count)
system.cpu.iew.dispSquashedInsts                  390                       # Number of squashed instructions skipped by dispatch (Count)
system.cpu.iew.dispLoadInsts                  8057564                       # Number of dispatched load instructions (Count)
system.cpu.iew.dispStoreInsts                 4113016                       # Number of dispatched store instructions (Count)
system.cpu.iew.dispNonSpecInsts                    34                       # Number of dispatched non-speculative instructions (Count)
system.cpu.iew.iqFullEvents                      2342                       # Number of times the IQ has become full, causing a stall (Count)
system.cpu.iew.lsqFullEvents                     6836                       # Number of times the LSQ has become full, causing a stall (Count)
system.cpu.iew.memOrderViolationEvents            521                       # Number of memory order violations (Count)
system.cpu.iew.predictedTakenIncorrect           5136                       # Number of branches that were predicted taken incorrectly (Count)
system.cpu.iew.predictedNotTakenIncorrect         9488                       # Number of branches that were predicted not taken incorrectly (Count)
system.cpu.iew.branchMispredicts                14624                       # Number of branch mispredicts detected at execute (Count)
system.cpu.iew.instsToCommit                 35669778                       # Cumulative count of insts sent to commit (Count)
system.cpu.iew.writebackCount                35663487                       # Cumulative count of insts written-back (Count)
system.cpu.iew.producerInst                  22833125                       # Number of instructions producing a value (Count)
system.cpu.iew.consumerInst                  30376644                       # Number of instructions consuming a value (Count)
system.cpu.iew.wbRate                        3.319350                       # Insts written-back per cycle ((Count/Cycle))
system.cpu.iew.wbFanout                      0.751667                       # Average fanout of values written-back ((Count/Count))
system.cpu.interrupts.clk_domain.clock           8000                       # Clock period in ticks (Tick)
system.cpu.l2cache.demandHits::cpu.inst             7                       # number of demand (read+write) hits (Count)
system.cpu.l2cache.demandHits::cpu.data          1187                       # number of demand (read+write) hits (Count)
system.cpu.l2cache.demandHits::total             1194                       # number of demand (read+write) hits (Count)
system.cpu.l2cache.overallHits::cpu.inst            7                       # number of overall hits (Count)
system.cpu.l2cache.overallHits::cpu.data         1187                       # number of overall hits (Count)
system.cpu.l2cache.overallHits::total            1194                       # number of overall hits (Count)
system.cpu.l2cache.demandMisses::cpu.inst         1327                       # number of demand (read+write) misses (Count)
system.cpu.l2cache.demandMisses::cpu.data         7223                       # number of demand (read+write) misses (Count)
system.cpu.l2cache.demandMisses::total           8550                       # number of demand (read+write) misses (Count)
system.cpu.l2cache.overallMisses::cpu.inst         1327                       # number of overall misses (Count)
system.cpu.l2cache.overallMisses::cpu.data         7223                       # number of overall misses (Count)
system.cpu.l2cache.overallMisses::total          8550                       # number of overall misses (Count)
system.cpu.l2cache.demandMissLatency::cpu.inst     98048000                       # number of demand (read+write) miss ticks (Tick)
system.cpu.l2cache.demandMissLatency::cpu.data    550862500                       # number of demand (read+write) miss ticks (Tick)
system.cpu.l2cache.demandMissLatency::total    648910500                       # number of demand (read+write) miss ticks (Tick)
system.cpu.l2cache.overallMissLatency::cpu.inst     98048000                       # number of overall miss ticks (Tick)
system.cpu.l2cache.overallMissLatency::cpu.data    550862500                       # number of overall miss ticks (Tick)
system.cpu.l2cache.overallMissLatency::total    648910500                       # number of overall miss ticks (Tick)
system.cpu.l2cache.demandAccesses::cpu.inst         1334                       # number of demand (read+write) accesses (Count)
system.cpu.l2cache.demandAccesses::cpu.data         8410                       # number of demand (read+write) accesses (Count)
system.cpu.l2cache.demandAccesses::total         9744                       # number of demand (read+write) accesses (Count)
system.cpu.l2cache.overallAccesses::cpu.inst         1334                       # number of overall (read+write) accesses (Count)
system.cpu.l2cache.overallAccesses::cpu.data         8410                       # number of overall (read+write) accesses (Count)
system.cpu.l2cache.overallAccesses::total         9744                       # number of overall (read+write) accesses (Count)
system.cpu.l2cache.demandMissRate::cpu.inst     0.994753                       # miss rate for demand accesses (Ratio)
system.cpu.l2cache.demandMissRate::cpu.data     0.858859                       # miss rate for demand accesses (Ratio)
system.cpu.l2cache.demandMissRate::total     0.877463                       # miss rate for demand accesses (Ratio)
system.cpu.l2cache.overallMissRate::cpu.inst     0.994753                       # miss rate for overall accesses (Ratio)
system.cpu.l2cache.overallMissRate::cpu.data     0.858859                       # miss rate for overall accesses (Ratio)
system.cpu.l2cache.overallMissRate::total     0.877463                       # miss rate for overall accesses (Ratio)
system.cpu.l2cache.demandAvgMissLatency::cpu.inst 73886.963075                       # average overall miss latency ((Cycle/Count))
system.cpu.l2cache.demandAvgMissLatency::cpu.data 76265.056071                       # average overall miss latency ((Cycle/Count))
system.cpu.l2cache.demandAvgMissLatency::total 75895.964912                       # average overall miss latency ((Cycle/Count))
system.cpu.l2cache.overallAvgMissLatency::cpu.inst 73886.963075                       # average overall miss latency ((Cycle/Count))
system.cpu.l2cache.overallAvgMissLatency::cpu.data 76265.056071                       # average overall miss latency ((Cycle/Count))
system.cpu.l2cache.overallAvgMissLatency::total 75895.964912                       # average overall miss latency ((Cycle/Count))
system.cpu.l2cache.blockedCycles::no_mshrs            0                       # number of cycles access was blocked (Cycle)
system.cpu.l2cache.blockedCycles::no_targets            0                       # number of cycles access was blocked (Cycle)
system.cpu.l2cache.blockedCauses::no_mshrs            0                       # number of times access was blocked (Count)
system.cpu.l2cache.blockedCauses::no_targets            0                       # number of times access was blocked (Count)
system.cpu.l2cache.avgBlocked::no_mshrs           nan                       # average number of cycles each access was blocked ((Cycle/Count))
system.cpu.l2cache.avgBlocked::no_targets          nan                       # average number of cycles each access was blocked ((Cycle/Count))
system.cpu.l2cache.writebacks::writebacks         4028                       # number of writebacks (Count)
system.cpu.l2cache.writebacks::total             4028                       # number of writebacks (Count)
system.cpu.l2cache.demandMshrMisses::cpu.inst         1327                       # number of demand (read+write) MSHR misses (Count)
system.cpu.l2cache.demandMshrMisses::cpu.data         7223                       # number of demand (read+write) MSHR misses (Count)
system.cpu.l2cache.demandMshrMisses::total         8550                       # number of demand (read+write) MSHR misses (Count)
system.cpu.l2cache.overallMshrMisses::cpu.inst         1327                       # number of overall MSHR misses (Count)
system.cpu.l2cache.overallMshrMisses::cpu.data         7223                       # number of overall MSHR misses (Count)
system.cpu.l2cache.overallMshrMisses::total         8550                       # number of overall MSHR misses (Count)
system.cpu.l2cache.demandMshrMissLatency::cpu.inst     84788000                       # number of demand (read+write) MSHR miss ticks (Tick)
system.cpu.l2cache.demandMshrMissLatency::cpu.data    478632500                       # number of demand (read+write) MSHR miss ticks (Tick)
system.cpu.l2cache.demandMshrMissLatency::total    563420500                       # number of demand (read+write) MSHR miss ticks (Tick)
system.cpu.l2cache.overallMshrMissLatency::cpu.inst     84788000                       # number of overall MSHR miss ticks (Tick)
system.cpu.l2cache.overallMshrMissLatency::cpu.data    478632500                       # number of overall MSHR miss ticks (Tick)
system.cpu.l2cache.overallMshrMissLatency::total    563420500                       # number of overall MSHR miss ticks (Tick)
system.cpu.l2cache.demandMshrMissRate::cpu.inst     0.994753                       # mshr miss ratio for demand accesses (Ratio)
system.cpu.l2cache.demandMshrMissRate::cpu.data     0.858859                       # mshr miss ratio for demand accesses (Ratio)
[...]
system.mem_ctrl.dram.bytesWritten::total       257792                       # Number of bytes written to this memory (Byte)
system.mem_ctrl.dram.numReads::cpu.inst          1326                       # Number of read requests responded to by this memory (Count)
system.mem_ctrl.dram.numReads::cpu.data          7223                       # Number of read requests responded to by this memory (Count)
system.mem_ctrl.dram.numReads::total             8549                       # Number of read requests responded to by this memory (Count)
system.mem_ctrl.dram.numWrites::writebacks         4028                       # Number of write requests responded to by this memory (Count)
system.mem_ctrl.dram.numWrites::total            4028                       # Number of write requests responded to by this memory (Count)
system.mem_ctrl.dram.bwRead::cpu.inst        15797296                       # Total read bandwidth from this memory ((Byte/Second))
system.mem_ctrl.dram.bwRead::cpu.data        86051185                       # Total read bandwidth from this memory ((Byte/Second))
system.mem_ctrl.dram.bwRead::total          101848481                       # Total read bandwidth from this memory ((Byte/Second))
system.mem_ctrl.dram.bwInstRead::cpu.inst     15797296                       # Instruction read bandwidth from this memory ((Byte/Second))
system.mem_ctrl.dram.bwInstRead::total       15797296                       # Instruction read bandwidth from this memory ((Byte/Second))
system.mem_ctrl.dram.bwWrite::writebacks     47987564                       # Write bandwidth from this memory ((Byte/Second))
system.mem_ctrl.dram.bwWrite::total          47987564                       # Write bandwidth from this memory ((Byte/Second))
system.mem_ctrl.dram.bwTotal::writebacks     47987564                       # Total bandwidth to/from this memory ((Byte/Second))
system.mem_ctrl.dram.bwTotal::cpu.inst       15797296                       # Total bandwidth to/from this memory ((Byte/Second))
system.mem_ctrl.dram.bwTotal::cpu.data       86051185                       # Total bandwidth to/from this memory ((Byte/Second))
system.mem_ctrl.dram.bwTotal::total         149836045                       # Total bandwidth to/from this memory ((Byte/Second))
system.mem_ctrl.dram.readBursts                  8544                       # Number of DRAM read bursts (Count)
system.mem_ctrl.dram.writeBursts                 4007                       # Number of DRAM write bursts (Count)
system.mem_ctrl.dram.perBankRdBursts::0           725                       # Per bank write bursts (Count)
system.mem_ctrl.dram.perBankRdBursts::1           690                       # Per bank write bursts (Count)
system.mem_ctrl.dram.perBankRdBursts::2           943                       # Per bank write bursts (Count)
system.mem_ctrl.dram.perBankRdBursts::3           575                       # Per bank write bursts (Count)
system.mem_ctrl.dram.perBankRdBursts::4           544                       # Per bank write bursts (Count)
system.mem_ctrl.dram.perBankRdBursts::5           379                       # Per bank write bursts (Count)
system.mem_ctrl.dram.perBankRdBursts::6           347                       # Per bank write bursts (Count)
system.mem_ctrl.dram.perBankRdBursts::7           321                       # Per bank write bursts (Count)
system.mem_ctrl.dram.perBankRdBursts::8           351                       # Per bank write bursts (Count)
system.mem_ctrl.dram.perBankRdBursts::9           457                       # Per bank write bursts (Count)
system.mem_ctrl.dram.perBankRdBursts::10          585                       # Per bank write bursts (Count)
system.mem_ctrl.dram.perBankRdBursts::11          500                       # Per bank write bursts (Count)
system.mem_ctrl.dram.perBankRdBursts::12          411                       # Per bank write bursts (Count)
system.mem_ctrl.dram.perBankRdBursts::13          521                       # Per bank write bursts (Count)
system.mem_ctrl.dram.perBankRdBursts::14          534                       # Per bank write bursts (Count)
system.mem_ctrl.dram.perBankRdBursts::15          661                       # Per bank write bursts (Count)
system.mem_ctrl.dram.perBankWrBursts::0           399                       # Per bank write bursts (Count)
system.mem_ctrl.dram.perBankWrBursts::1           324                       # Per bank write bursts (Count)
system.mem_ctrl.dram.perBankWrBursts::2           508                       # Per bank write bursts (Count)
system.mem_ctrl.dram.perBankWrBursts::3           312                       # Per bank write bursts (Count)
system.mem_ctrl.dram.perBankWrBursts::4           261                       # Per bank write bursts (Count)
system.mem_ctrl.dram.perBankWrBursts::5           129                       # Per bank write bursts (Count)
system.mem_ctrl.dram.perBankWrBursts::6           182                       # Per bank write bursts (Count)
system.mem_ctrl.dram.perBankWrBursts::7           128                       # Per bank write bursts (Count)
system.mem_ctrl.dram.perBankWrBursts::8           132                       # Per bank write bursts (Count)
system.mem_ctrl.dram.perBankWrBursts::9           187                       # Per bank write bursts (Count)
system.mem_ctrl.dram.perBankWrBursts::10          236                       # Per bank write bursts (Count)
system.mem_ctrl.dram.perBankWrBursts::11          196                       # Per bank write bursts (Count)
system.mem_ctrl.dram.perBankWrBursts::12          128                       # Per bank write bursts (Count)
system.mem_ctrl.dram.perBankWrBursts::13          282                       # Per bank write bursts (Count)
system.mem_ctrl.dram.perBankWrBursts::14          272                       # Per bank write bursts (Count)
system.mem_ctrl.dram.perBankWrBursts::15          331                       # Per bank write bursts (Count)
system.mem_ctrl.dram.totQLat                 97663000                       # Total ticks spent queuing (Tick)
system.mem_ctrl.dram.totBusLat               42720000                       # Total ticks spent in databus transfers (Tick)
system.mem_ctrl.dram.totMemAccLat           257863000                       # Total ticks spent from burst creation until serviced by the DRAM (Tick)
system.mem_ctrl.dram.avgQLat                 11430.59                       # Average queueing delay per DRAM burst ((Tick/Count))
system.mem_ctrl.dram.avgBusLat                5000.00                       # Average bus latency per DRAM burst ((Tick/Count))
system.mem_ctrl.dram.avgMemAccLat            30180.59                       # Average memory access latency per DRAM burst ((Tick/Count))
system.mem_ctrl.dram.readRowHits                 7047                       # Number of row buffer hits during reads (Count)
system.mem_ctrl.dram.writeRowHits                3543                       # Number of row buffer hits during writes (Count)
system.mem_ctrl.dram.readRowHitRate             82.48                       # Row buffer hit rate for reads (Ratio)
system.mem_ctrl.dram.writeRowHitRate            88.42                       # Row buffer hit rate for writes (Ratio)
system.mem_ctrl.dram.bytesPerActivate::samples         1947                       # Bytes accessed per row activation (Byte)
system.mem_ctrl.dram.bytesPerActivate::mean   410.724191                       # Bytes accessed per row activation (Byte)
system.mem_ctrl.dram.bytesPerActivate::gmean   275.617164                       # Bytes accessed per row activation (Byte)
system.mem_ctrl.dram.bytesPerActivate::stdev   342.338934                       # Bytes accessed per row activation (Byte)
system.mem_ctrl.dram.bytesPerActivate::0-127          342     17.57%     17.57% # Bytes accessed per row activation (Byte)
system.mem_ctrl.dram.bytesPerActivate::128-255          566     29.07%     46.64% # Bytes accessed per row activation (Byte)
system.mem_ctrl.dram.bytesPerActivate::256-383          165      8.47%     55.11% # Bytes accessed per row activation (Byte)
system.mem_ctrl.dram.bytesPerActivate::384-511          265     13.61%     68.72% # Bytes accessed per row activation (Byte)
system.mem_ctrl.dram.bytesPerActivate::512-639          113      5.80%     74.52% # Bytes accessed per row activation (Byte)
system.mem_ctrl.dram.bytesPerActivate::640-767           55      2.82%     77.35% # Bytes accessed per row activation (Byte)
system.mem_ctrl.dram.bytesPerActivate::768-895           72      3.70%     81.05% # Bytes accessed per row activation (Byte)
system.mem_ctrl.dram.bytesPerActivate::896-1023           52      2.67%     83.72% # Bytes accessed per row activation (Byte)
system.mem_ctrl.dram.bytesPerActivate::1024-1151          317     16.28%    100.00% # Bytes accessed per row activation (Byte)
system.mem_ctrl.dram.bytesPerActivate::total         1947                       # Bytes accessed per row activation (Byte)
system.mem_ctrl.dram.bytesRead                 546816                       # Total bytes read (Byte)
system.mem_ctrl.dram.bytesWritten              256448                       # Total bytes written (Byte)
system.mem_ctrl.dram.avgRdBW               101.788914                       # Average DRAM read bandwidth in MiBytes/s ((Byte/Second))
system.mem_ctrl.dram.avgWrBW                47.737380                       # Average DRAM write bandwidth in MiBytes/s ((Byte/Second))
system.mem_ctrl.dram.peakBW                  12800.00                       # Theoretical peak bandwidth in MiByte/s ((Byte/Second))
system.mem_ctrl.dram.busUtil                     1.17                       # Data bus utilization in percentage (Ratio)
system.mem_ctrl.dram.busUtilRead                 0.80                       # Data bus utilization in percentage for reads (Ratio)
system.mem_ctrl.dram.busUtilWrite                0.37                       # Data bus utilization in percentage for writes (Ratio)
system.mem_ctrl.dram.pageHitRate                84.38                       # Row buffer hit rate, read and write combined (Ratio)
system.mem_ctrl.dram.power_state.pwrStateResidencyTicks::UNDEFINED   5372058500                       # Cumulative time (in ticks) in various power states (Tick)
system.mem_ctrl.dram.rank0.actEnergy          7682640                       # Energy for activate commands per rank (pJ) (Joule)
system.mem_ctrl.dram.rank0.preEnergy          4060650                       # Energy for precharge commands per rank (pJ) (Joule)
system.mem_ctrl.dram.rank0.readEnergy        32301360                       # Energy for read commands per rank (pJ) (Joule)
system.mem_ctrl.dram.rank0.writeEnergy       11708460                       # Energy for write commands per rank (pJ) (Joule)
system.mem_ctrl.dram.rank0.refreshEnergy 423486960.000000                       # Energy for refresh commands per rank (pJ) (Joule)
system.mem_ctrl.dram.rank0.actBackEnergy   1063173690                       # Energy for active background per rank (pJ) (Joule)
system.mem_ctrl.dram.rank0.preBackEnergy   1167566400                       # Energy for precharge background per rank (pJ) (Joule)
system.mem_ctrl.dram.rank0.actPowerDownEnergy            0                       # Energy for active power-down per rank (pJ) (Joule)
system.mem_ctrl.dram.rank0.prePowerDownEnergy            0                       # Energy for precharge power-down per rank (pJ) (Joule)
system.mem_ctrl.dram.rank0.selfRefreshEnergy            0                       # Energy for self refresh per rank (pJ) (Joule)
system.mem_ctrl.dram.rank0.totalEnergy     2709980160                       # Total energy per rank (pJ) (Joule)
system.mem_ctrl.dram.rank0.averagePower    504.458423                       # Core power per rank (mW) (Watt)
system.mem_ctrl.dram.rank0.totalIdleTime            0                       # Total Idle time Per DRAM Rank (Tick)
system.mem_ctrl.dram.rank0.pwrStateTime::IDLE   3023909500                       # Time in different power states (Tick)
system.mem_ctrl.dram.rank0.pwrStateTime::REF    179140000                       # Time in different power states (Tick)
system.mem_ctrl.dram.rank0.pwrStateTime::SREF            0                       # Time in different power states (Tick)
system.mem_ctrl.dram.rank0.pwrStateTime::PRE_PDN            0                       # Time in different power states (Tick)
system.mem_ctrl.dram.rank0.pwrStateTime::ACT   2169009000                       # Time in different power states (Tick)
system.mem_ctrl.dram.rank0.pwrStateTime::ACT_PDN            0                       # Time in different power states (Tick)
system.mem_ctrl.dram.rank1.actEnergy          6318900                       # Energy for activate commands per rank (pJ) (Joule)
system.mem_ctrl.dram.rank1.preEnergy          3328215                       # Energy for precharge commands per rank (pJ) (Joule)
system.mem_ctrl.dram.rank1.readEnergy        28702800                       # Energy for read commands per rank (pJ) (Joule)
system.mem_ctrl.dram.rank1.writeEnergy        9208080                       # Energy for write commands per rank (pJ) (Joule)
system.mem_ctrl.dram.rank1.refreshEnergy 423486960.000000                       # Energy for refresh commands per rank (pJ) (Joule)
system.mem_ctrl.dram.rank1.actBackEnergy    860152800                       # Energy for active background per rank (pJ) (Joule)
system.mem_ctrl.dram.rank1.preBackEnergy   1338531360                       # Energy for precharge background per rank (pJ) (Joule)
system.mem_ctrl.dram.rank1.actPowerDownEnergy            0                       # Energy for active power-down per rank (pJ) (Joule)
system.mem_ctrl.dram.rank1.prePowerDownEnergy            0                       # Energy for precharge power-down per rank (pJ) (Joule)
system.mem_ctrl.dram.rank1.selfRefreshEnergy            0                       # Energy for self refresh per rank (pJ) (Joule)
system.mem_ctrl.dram.rank1.totalEnergy     2669729115                       # Total energy per rank (pJ) (Joule)
system.mem_ctrl.dram.rank1.averagePower    496.965756                       # Core power per rank (mW) (Watt)
system.mem_ctrl.dram.rank1.totalIdleTime            0                       # Total Idle time Per DRAM Rank (Tick)
system.mem_ctrl.dram.rank1.pwrStateTime::IDLE   3470562000                       # Time in different power states (Tick)
system.mem_ctrl.dram.rank1.pwrStateTime::REF    179140000                       # Time in different power states (Tick)
system.mem_ctrl.dram.rank1.pwrStateTime::SREF            0                       # Time in different power states (Tick)
system.mem_ctrl.dram.rank1.pwrStateTime::PRE_PDN            0                       # Time in different power states (Tick)
system.mem_ctrl.dram.rank1.pwrStateTime::ACT   1722356500                       # Time in different power states (Tick)
system.mem_ctrl.dram.rank1.pwrStateTime::ACT_PDN            0                       # Time in different power states (Tick)
system.mem_ctrl.power_state.pwrStateResidencyTicks::UNDEFINED   5372058500                       # Cumulative time (in ticks) in various power states (Tick)
system.membus.transDist::ReadResp                6891                       # Transaction distribution (Count)
system.membus.transDist::WritebackDirty          4028                       # Transaction distribution (Count)
system.membus.transDist::CleanEvict              1685                       # Transaction distribution (Count)
system.membus.transDist::ReadExReq               1658                       # Transaction distribution (Count)
system.membus.transDist::ReadExResp              1658                       # Transaction distribution (Count)
system.membus.transDist::ReadSharedReq           6891                       # Transaction distribution (Count)
system.membus.pktCount_system.cpu.l2cache.mem_side_port::system.mem_ctrl.port        22811                       # Packet count per connected requestor and responder (Count)
system.membus.pktCount_system.cpu.l2cache.mem_side_port::total        22811                       # Packet count per connected requestor and responder (Count)
system.membus.pktCount::total                   22811                       # Packet count per connected requestor and responder (Count)
system.membus.pktSize_system.cpu.l2cache.mem_side_port::system.mem_ctrl.port       804928                       # Cumulative packet size per connected requestor and responder (Byte)
system.membus.pktSize_system.cpu.l2cache.mem_side_port::total       804928                       # Cumulative packet size per connected requestor and responder (Byte)
system.membus.pktSize::total                   804928                       # Cumulative packet size per connected requestor and responder (Byte)
system.membus.snoops                                0                       # Total snoops (Count)
system.membus.snoopTraffic                          0                       # Total snoop traffic (Byte)
system.membus.snoopFanout::samples               8549                       # Request fanout histogram (Count)
system.membus.snoopFanout::mean                     0                       # Request fanout histogram (Count)
system.membus.snoopFanout::stdev                    0                       # Request fanout histogram (Count)
system.membus.snoopFanout::underflows               0      0.00%      0.00% # Request fanout histogram (Count)
system.membus.snoopFanout::0                     8549    100.00%    100.00% # Request fanout histogram (Count)
system.membus.snoopFanout::1                        0      0.00%    100.00% # Request fanout histogram (Count)
system.membus.snoopFanout::overflows                0      0.00%    100.00% # Request fanout histogram (Count)
system.membus.snoopFanout::min_value                0                       # Request fanout histogram (Count)
system.membus.snoopFanout::max_value                0                       # Request fanout histogram (Count)
system.membus.snoopFanout::total                 8549                       # Request fanout histogram (Count)
system.membus.power_state.pwrStateResidencyTicks::UNDEFINED   5372058500                       # Cumulative time (in ticks) in various power states (Tick)
system.membus.reqLayer2.occupancy            15187000                       # Layer occupancy (ticks) (Tick)
system.membus.reqLayer2.utilization               0.0                       # Layer utilization (Ratio)
system.membus.respLayer0.occupancy           22947000                       # Layer occupancy (ticks) (Tick)
system.membus.respLayer0.utilization              0.0                       # Layer utilization (Ratio)
system.membus.snoop_filter.totRequests          14262                       # Total number of requests made to the snoop filter. (Count)
system.membus.snoop_filter.hitSingleRequests         5716                       # Number of requests hitting in the snoop filter with a single holder of the requested data. (Count)
system.membus.snoop_filter.hitMultiRequests            0                       # Number of requests hitting in the snoop filter with multiple (>1) holders of the requested data. (Count)
system.membus.snoop_filter.totSnoops                0                       # Total number of snoops made to the snoop filter. (Count)
system.membus.snoop_filter.hitSingleSnoops            0                       # Number of snoops hitting in the snoop filter with a single holder of the requested data. (Count)
system.membus.snoop_filter.hitMultiSnoops            0                       # Number of snoops hitting in the snoop filter with multiple (>1) holders of the requested data. (Count)
system.workload.inst.arm                            0                       # number of arm instructions executed (Count)
system.workload.inst.quiesce                        0                       # number of quiesce instructions executed (Count)

---------- End Simulation Statistics   ----------
