
---------- Begin Simulation Statistics ----------
simSeconds                                   0.005342                       # Number of seconds simulated (Second)
simTicks                                   5341717000                       # Number of ticks simulated (Tick)
finalTick                                  5341717000                       # Number of ticks from beginning of simulation (restored from checkpoints and never reset) (Tick)
simFreq                                  1000000000000                       # The number of ticks per simulated second ((Tick/Second))
hostSeconds                                    136.47                       # Real time elapsed on the host (Second)
hostTickRate                                 39142647                       # The number of ticks simulated per host second (ticks/s) ((Tick/Second))
hostMemory                                    1199784                       # Number of bytes of host memory used (Byte)
simInsts                                     19928450                       # Number of instructions simulated (Count)
simOps                                       35336477                       # Number of ops (including micro ops) simulated (Count)
hostInstRate                                   146030                       # Simulator instruction rate (inst/s) ((Count/Second))
hostOpRate                                     258936                       # Simulator op (including micro ops) rate (op/s) ((Count/Second))
system.clk_domain.clock                           500                       # Clock period in ticks (Tick)
system.clk_domain.voltage_domain.voltage            1                       # Voltage in Volts (Volt)
system.cpu.numCycles                         10683435                       # Number of cpu cycles simulated (Cycle)
system.cpu.numWorkItemsStarted                      0                       # Number of work items this cpu started (Count)
system.cpu.numWorkItemsCompleted                    0                       # Number of work items this cpu completed (Count)
system.cpu.instsAdded                        35927949                       # Number of instructions added to the IQ (excludes non-spec) (Count)
system.cpu.nonSpecInstsAdded                       36                       # Number of non-speculative instructions added to the IQ (Count)
system.cpu.instsIssued                       35777043                       # Number of instructions issued (Count)
system.cpu.squashedInstsIssued                   1318                       # Number of squashed instructions issued (Count)
system.cpu.squashedInstsExamined               591502                       # Number of squashed instructions iterated over during squash; mainly for profiling (Count)
system.cpu.squashedOperandsExamined            639190                       # Number of squashed operands that are examined and possibly removed from graph (Count)
system.cpu.squashedNonSpecRemoved                  18                       # Number of squashed non-spec instructions that were removed (Count)
system.cpu.numIssuedDist::samples            10586020                       # Number of insts issued each cycle (Count)
system.cpu.numIssuedDist::mean               3.379650                       # Number of insts issued each cycle (Count)
system.cpu.numIssuedDist::stdev              1.954162                       # Number of insts issued each cycle (Count)
system.cpu.numIssuedDist::underflows                0      0.00%      0.00% # Number of insts issued each cycle (Count)
system.cpu.numIssuedDist::0                    791489      7.48%      7.48% # Number of insts issued each cycle (Count)
system.cpu.numIssuedDist::1                   1233754     11.65%     19.13% # Number of insts issued each cycle (Count)
system.cpu.numIssuedDist::2                    992266      9.37%     28.50% # Number of insts issued each cycle (Count)
system.cpu.numIssuedDist::3                   3118530     29.46%     57.96% # Number of insts issued each cycle (Count)
system.cpu.numIssuedDist::4                   1657718     15.66%     73.62% # Number of insts issued each cycle (Count)
system.cpu.numIssuedDist::5                   1306930     12.35%     85.97% # Number of insts issued each cycle (Count)
system.cpu.numIssuedDist::6                    743451      7.02%     92.99% # Number of insts issued each cycle (Count)
system.cpu.numIssuedDist::7                    358117      3.38%     96.37% # Number of insts issued each cycle (Count)
system.cpu.numIssuedDist::8                    383765      3.63%    100.00% # Number of insts issued each cycle (Count)
system.cpu.numIssuedDist::overflows                 0      0.00%    100.00% # Number of insts issued each cycle (Count)
system.cpu.numIssuedDist::min_value                 0                       # Number of insts issued each cycle (Count)
system.cpu.numIssuedDist::max_value                 8                       # Number of insts issued each cycle (Count)
system.cpu.numIssuedDist::total              10586020                       # Number of insts issued each cycle (Count)
system.cpu.statFuBusy::No_OpClass                   0      0.00%      0.00% # attempts to use FU when none available (Count)
system.cpu.statFuBusy::IntAlu                  583861     95.29%     95.29% # attempts to use FU when none available (Count)
system.cpu.statFuBusy::IntMult                      0      0.00%     95.29% # attempts to use FU when none available (Count)
system.cpu.statFuBusy::IntDiv                       0      0.00%     95.29% # attempts to use FU when none available (Count)
system.cpu.statFuBusy::FloatAdd                     0      0.00%     95.29% # attempts to use FU when none available (Count)
system.cpu.statFuBusy::FloatCmp                     0      0.00%     95.29% # attempts to use FU when none available (Count)
system.cpu.statFuBusy::FloatCvt                     0      0.00%     95.29% # attempts to use FU when none available (Count)
system.cpu.statFuBusy::FloatMult                    0      0.00%     95.29% # attempts to use FU when none available (Count)
system.cpu.statFuBusy::FloatMultAcc                 0      0.00%     95.29% # attempts to use FU when none available (Count)
system.cpu.statFuBusy::FloatDiv                     0      0.00%     95.29% # attempts to use FU when none available (Count)
system.cpu.statFuBusy::FloatMisc                    0      0.00%     95.29% # attempts to use FU when none available (Count)
system.cpu.statFuBusy::FloatSqrt                    0      0.00%     95.29% # attempts to use FU when none available (Count)
system.cpu.statFuBusy::SimdAdd                      0      0.00%     95.29% # attempts to use FU when none available (Count)
system.cpu.statFuBusy::SimdAddAcc                   0      0.00%     95.29% # attempts to use FU when none available (Count)
system.cpu.statFuBusy::SimdAlu                   1018      0.17%     95.45% # attempts to use FU when none available (Count)
system.cpu.statFuBusy::SimdCmp                      0      0.00%     95.45% # attempts to use FU when none available (Count)
system.cpu.statFuBusy::SimdCvt                     27      0.00%     95.46% # attempts to use FU when none available (Count)
system.cpu.statFuBusy::SimdMisc                     5      0.00%     95.46% # attempts to use FU when none available (Count)
system.cpu.statFuBusy::SimdMult                     0      0.00%     95.46% # attempts to use FU when none available (Count)
system.cpu.statFuBusy::SimdMultAcc                  0      0.00%     95.46% # attempts to use FU when none available (Count)
system.cpu.statFuBusy::SimdShift                    0      0.00%     95.46% # attempts to use FU when none available (Count)
system.cpu.statFuBusy::SimdShiftAcc                 0      0.00%     95.46% # attempts to use FU when none available (Count)
system.cpu.statFuBusy::SimdDiv                      0      0.00%     95.46% # attempts to use FU when none available (Count)
system.cpu.statFuBusy::SimdSqrt                     0      0.00%     95.46% # attempts to use FU when none available (Count)
system.cpu.statFuBusy::SimdFloatAdd                 0      0.00%     95.46% # attempts to use FU when none available (Count)
system.cpu.statFuBusy::SimdFloatAlu                 0      0.00%     95.46% # attempts to use FU when none available (Count)
system.cpu.statFuBusy::SimdFloatCmp                 0      0.00%     95.46% # attempts to use FU when none available (Count)
system.cpu.statFuBusy::SimdFloatCvt                 0      0.00%     95.46% # attempts to use FU when none available (Count)
system.cpu.statFuBusy::SimdFloatDiv                 0      0.00%     95.46% # attempts to use FU when none available (Count)
system.cpu.statFuBusy::SimdFloatMisc                0      0.00%     95.46% # attempts to use FU when none available (Count)
system.cpu.statFuBusy::SimdFloatMult                0      0.00%     95.46% # attempts to use FU when none available (Count)
system.cpu.statFuBusy::SimdFloatMultAcc             0      0.00%     95.46% # attempts to use FU when none available (Count)
system.cpu.statFuBusy::SimdFloatSqrt                0      0.00%     95.46% # attempts to use FU when none available (Count)
system.cpu.statFuBusy::SimdReduceAdd                0      0.00%     95.46% # attempts to use FU when none available (Count)
system.cpu.statFuBusy::SimdReduceAlu                0      0.00%     95.46% # attempts to use FU when none available (Count)
system.cpu.statFuBusy::SimdReduceCmp                0      0.00%     95.46% # attempts to use FU when none available (Count)
system.cpu.statFuBusy::SimdFloatReduceAdd            0      0.00%     95.46% # attempts to use FU when none available (Count)
system.cpu.statFuBusy::SimdFloatReduceCmp            0      0.00%     95.46% # attempts to use FU when none available (Count)
system.cpu.statFuBusy::SimdAes                      0      0.00%     95.46% # attempts to use FU when none available (Count)
system.cpu.statFuBusy::SimdAesMix                   0      0.00%     95.46% # attempts to use FU when none available (Count)
system.cpu.statFuBusy::SimdSha1Hash                 0      0.00%     95.46% # attempts to use FU when none available (Count)
system.cpu.statFuBusy::SimdSha1Hash2                0      0.00%     95.46% # attempts to use FU when none available (Count)
system.cpu.statFuBusy::SimdSha256Hash               0      0.00%     95.46% # attempts to use FU when none available (Count)
system.cpu.statFuBusy::SimdSha256Hash2              0      0.00%     95.46% # attempts to use FU when none available (Count)
system.cpu.statFuBusy::SimdShaSigma2                0      0.00%     95.46% # attempts to use FU when none available (Count)
system.cpu.statFuBusy::SimdShaSigma3                0      0.00%     95.46% # attempts to use FU when none available (Count)
system.cpu.statFuBusy::SimdPredAlu                  0      0.00%     95.46% # attempts to use FU when none available (Count)
system.cpu.statFuBusy::MemRead                  18574      3.03%     98.49% # attempts to use FU when none available (Count)
system.cpu.statFuBusy::MemWrite                  2453      0.40%     98.89% # attempts to use FU when none available (Count)
system.cpu.statFuBusy::FloatMemRead              1975      0.32%     99.21% # attempts to use FU when none available (Count)
system.cpu.statFuBusy::FloatMemWrite             4828      0.79%    100.00% # attempts to use FU when none available (Count)
system.cpu.statFuBusy::IprAccess                    0      0.00%    100.00% # attempts to use FU when none available (Count)
system.cpu.statFuBusy::InstPrefetch                 0      0.00%    100.00% # attempts to use FU when none available (Count)
system.cpu.statIssuedInstType_0::No_OpClass       594951      1.66%      1.66% # Number of instructions issued per FU type, per thread (Count)
system.cpu.statIssuedInstType_0::IntAlu      20374325     56.95%     58.61% # Number of instructions issued per FU type, per thread (Count)
system.cpu.statIssuedInstType_0::IntMult       517543      1.45%     60.06% # Number of instructions issued per FU type, per thread (Count)
system.cpu.statIssuedInstType_0::IntDiv         54226      0.15%     60.21% # Number of instructions issued per FU type, per thread (Count)
system.cpu.statIssuedInstType_0::FloatAdd      1517329      4.24%     64.45% # Number of instructions issued per FU type, per thread (Count)
system.cpu.statIssuedInstType_0::FloatCmp            0      0.00%     64.45% # Number of instructions issued per FU type, per thread (Count)
system.cpu.statIssuedInstType_0::FloatCvt           32      0.00%     64.45% # Number of instructions issued per FU type, per thread (Count)
system.cpu.statIssuedInstType_0::FloatMult            0      0.00%     64.45% # Number of instructions issued per FU type, per thread (Count)
system.cpu.statIssuedInstType_0::FloatMultAcc            0      0.00%     64.45% # Number of instructions issued per FU type, per thread (Count)
system.cpu.statIssuedInstType_0::FloatDiv            0      0.00%     64.45% # Number of instructions issued per FU type, per thread (Count)
system.cpu.statIssuedInstType_0::FloatMisc            0      0.00%     64.45% # Number of instructions issued per FU type, per thread (Count)
system.cpu.statIssuedInstType_0::FloatSqrt            0      0.00%     64.45% # Number of instructions issued per FU type, per thread (Count)
system.cpu.statIssuedInstType_0::SimdAdd          458      0.00%     64.45% # Number of instructions issued per FU type, per thread (Count)
system.cpu.statIssuedInstType_0::SimdAddAcc            0      0.00%     64.45% # Number of instructions issued per FU type, per thread (Count)
system.cpu.statIssuedInstType_0::SimdAlu        19188      0.05%     64.51% # Number of instructions issued per FU type, per thread (Count)
system.cpu.statIssuedInstType_0::SimdCmp            8      0.00%     64.51% # Number of instructions issued per FU type, per thread (Count)
system.cpu.statIssuedInstType_0::SimdCvt        11125      0.03%     64.54% # Number of instructions issued per FU type, per thread (Count)
system.cpu.statIssuedInstType_0::SimdMisc        24988      0.07%     64.61% # Number of instructions issued per FU type, per thread (Count)
system.cpu.statIssuedInstType_0::SimdMult            0      0.00%     64.61% # Number of instructions issued per FU type, per thread (Count)
system.cpu.statIssuedInstType_0::SimdMultAcc            0      0.00%     64.61% # Number of instructions issued per FU type, per thread (Count)
system.cpu.statIssuedInstType_0::SimdShift          334      0.00%     64.61% # Number of instructions issued per FU type, per thread (Count)
system.cpu.statIssuedInstType_0::SimdShiftAcc            0      0.00%     64.61% # Number of instructions issued per FU type, per thread (Count)
system.cpu.statIssuedInstType_0::SimdDiv            0      0.00%     64.61% # Number of instructions issued per FU type, per thread (Count)
system.cpu.statIssuedInstType_0::SimdSqrt            0      0.00%     64.61% # Number of instructions issued per FU type, per thread (Count)
system.cpu.statIssuedInstType_0::SimdFloatAdd            0      0.00%     64.61% # Number of instructions issued per FU type, per thread (Count)
system.cpu.statIssuedInstType_0::SimdFloatAlu            0      0.00%     64.61% # Number of instructions issued per FU type, per thread (Count)
system.cpu.statIssuedInstType_0::SimdFloatCmp            0      0.00%     64.61% # Number of instructions issued per FU type, per thread (Count)
system.cpu.statIssuedInstType_0::SimdFloatCvt       508519      1.42%     66.03% # Number of instructions issued per FU type, per thread (Count)
system.cpu.statIssuedInstType_0::SimdFloatDiv            0      0.00%     66.03% # Number of instructions issued per FU type, per thread (Count)
system.cpu.statIssuedInstType_0::SimdFloatMisc            0      0.00%     66.03% # Number of instructions issued per FU type, per thread (Count)
system.cpu.statIssuedInstType_0::SimdFloatMult            0      0.00%     66.03% # Number of instructions issued per FU type, per thread (Count)
system.cpu.statIssuedInstType_0::SimdFloatMultAcc            0      0.00%     66.03% # Number of instructions issued per FU type, per thread (Count)
system.cpu.statIssuedInstType_0::SimdFloatSqrt            0      0.00%     66.03% # Number of instructions issued per FU type, per thread (Count)
system.cpu.statIssuedInstType_0::SimdReduceAdd            0      0.00%     66.03% # Number of instructions issued per FU type, per thread (Count)
system.cpu.statIssuedInstType_0::SimdReduceAlu            0      0.00%     66.03% # Number of instructions issued per FU type, per thread (Count)
system.cpu.statIssuedInstType_0::SimdReduceCmp            0      0.00%     66.03% # Number of instructions issued per FU type, per thread (Count)
system.cpu.statIssuedInstType_0::SimdFloatReduceAdd            0      0.00%     66.03% # Number of instructions issued per FU type, per thread (Count)
system.cpu.statIssuedInstType_0::SimdFloatReduceCmp            0      0.00%     66.03% # Number of instructions issued per FU type, per thread (Count)
system.cpu.statIssuedInstType_0::SimdAes            0      0.00%     66.03% # Number of instructions issued per FU type, per thread (Count)
system.cpu.statIssuedInstType_0::SimdAesMix            0      0.00%     66.03% # Number of instructions issued per FU type, per thread (Count)
system.cpu.statIssuedInstType_0::SimdSha1Hash            0      0.00%     66.03% # Number of instructions issued per FU type, per thread (Count)
system.cpu.statIssuedInstType_0::SimdSha1Hash2            0      0.00%     66.03% # Number of instructions issued per FU type, per thread (Count)
system.cpu.statIssuedInstType_0::SimdSha256Hash            0      0.00%     66.03% # Number of instructions issued per FU type, per thread (Count)
system.cpu.statIssuedInstType_0::SimdSha256Hash2            0      0.00%     66.03% # Number of instructions issued per FU type, per thread (Count)
system.cpu.statIssuedInstType_0::SimdShaSigma2            0      0.00%     66.03% # Number of instructions issued per FU type, per thread (Count)
system.cpu.statIssuedInstType_0::SimdShaSigma3            0      0.00%     66.03% # Number of instructions issued per FU type, per thread (Count)
system.cpu.statIssuedInstType_0::SimdPredAlu            0      0.00%     66.03% # Number of instructions issued per FU type, per thread (Count)
system.cpu.statIssuedInstType_0::MemRead      5998754     16.77%     82.80% # Number of instructions issued per FU type, per thread (Count)
system.cpu.statIssuedInstType_0::MemWrite      3075626      8.60%     91.39% # Number of instructions issued per FU type, per thread (Count)
system.cpu.statIssuedInstType_0::FloatMemRead      2047170      5.72%     97.11% # Number of instructions issued per FU type, per thread (Count)
system.cpu.statIssuedInstType_0::FloatMemWrite      1032467      2.89%    100.00% # Number of instructions issued per FU type, per thread (Count)
system.cpu.statIssuedInstType_0::IprAccess            0      0.00%    100.00% # Number of instructions issued per FU type, per thread (Count)
system.cpu.statIssuedInstType_0::InstPrefetch            0      0.00%    100.00% # Number of instructions issued per FU type, per thread (Count)
system.cpu.statIssuedInstType_0::total       35777043                       # Number of instructions issued per FU type, per thread (Count)
system.cpu.issueRate                         3.348833                       # Inst issue rate ((Count/Cycle))
system.cpu.fuBusy                              612741                       # FU busy when requested (Count)
system.cpu.fuBusyRate                        0.017127                       # FU busy rate (busy events/executed inst) ((Count/Count))
system.cpu.intInstQueueReads                 72406403                       # Number of integer instruction queue reads (Count)
system.cpu.intInstQueueWrites                31333658                       # Number of integer instruction queue writes (Count)
system.cpu.intInstQueueWakeupAccesses        30556927                       # Number of integer instruction queue wakeup accesses (Count)
system.cpu.fpInstQueueReads                  10347762                       # Number of floating instruction queue reads (Count)
system.cpu.fpInstQueueWrites                  5186346                       # Number of floating instruction queue writes (Count)
system.cpu.fpInstQueueWakeupAccesses          5160326                       # Number of floating instruction queue wakeup accesses (Count)
system.cpu.vecInstQueueReads                        0                       # Number of vector instruction queue reads (Count)
system.cpu.vecInstQueueWrites                       0                       # Number of vector instruction queue writes (Count)
system.cpu.vecInstQueueWakeupAccesses               0                       # Number of vector instruction queue wakeup accesses (Count)
system.cpu.intAluAccesses                    30617039                       # Number of integer alu accesses (Count)
system.cpu.fpAluAccesses                      5177794                       # Number of floating point alu accesses (Count)
system.cpu.vecAluAccesses                           0                       # Number of vector alu accesses (Count)
system.cpu.numInsts                          35744235                       # Number of executed instructions (Count)
system.cpu.numLoadInsts                       8041288                       # Number of load instructions executed (Count)
system.cpu.numSquashedInsts                     32808                       # Number of squashed instructions skipped in execute (Count)
system.cpu.numSwp                                   0                       # Number of swp insts executed (Count)
system.cpu.numNop                                   0                       # Number of nop insts executed (Count)
system.cpu.numRefs                           12145502                       # Number of memory reference insts executed (Count)
system.cpu.numBranches                        3323784                       # Number of branches executed (Count)
system.cpu.numStoreInsts                      4104214                       # Number of stores executed (Count)
system.cpu.numRate                           3.345762                       # Inst execution rate ((Count/Cycle))
system.cpu.timesIdled                             930                       # Number of times that the entire CPU went into an idle state and unscheduled itself (Count)
system.cpu.idleCycles                           97415                       # Total number of cycles that the CPU has spent unscheduled due to idling (Cycle)
system.cpu.committedInsts                    19928450                       # Number of Instructions Simulated (Count)
system.cpu.committedOps                      35336477                       # Number of Ops (including micro ops) Simulated (Count)
system.cpu.cpi                               0.536090                       # CPI: Cycles Per Instruction ((Cycle/Count))
system.cpu.totalCpi                          0.536090                       # CPI: Total CPI of All Threads ((Cycle/Count))
system.cpu.ipc                               1.865360                       # IPC: Instructions Per Cycle ((Count/Cycle))
system.cpu.totalIpc                          1.865360                       # IPC: Total IPC of All Threads ((Count/Cycle))
system.cpu.intRegfileReads                   55827694                       # Number of integer regfile reads (Count)
system.cpu.intRegfileWrites                  24200632                       # Number of integer regfile writes (Count)
system.cpu.fpRegfileReads                     2180942                       # Number of floating regfile reads (Count)
system.cpu.fpRegfileWrites                    3610970                       # Number of floating regfile writes (Count)
system.cpu.ccRegfileReads                    10447931                       # number of cc regfile reads (Count)
system.cpu.ccRegfileWrites                    5911689                       # number of cc regfile writes (Count)
system.cpu.miscRegfileReads                  18256656                       # number of misc regfile reads (Count)
system.cpu.miscRegfileWrites                       18                       # number of misc regfile writes (Count)
system.cpu.MemDepUnit__0.insertedLoads        8064607                       # Number of loads inserted to the mem dependence unit. (Count)
system.cpu.MemDepUnit__0.insertedStores       4113998                       # Number of stores inserted to the mem dependence unit. (Count)
system.cpu.MemDepUnit__0.conflictingLoads      2574814                       # Number of conflicting loads. (Count)
system.cpu.MemDepUnit__0.conflictingStores       657972                       # Number of conflicting stores. (Count)
system.cpu.MemDepUnit__1.insertedLoads              0                       # Number of loads inserted to the mem dependence unit. (Count)
system.cpu.MemDepUnit__1.insertedStores             0                       # Number of stores inserted to the mem dependence unit. (Count)
system.cpu.MemDepUnit__1.conflictingLoads            0                       # Number of conflicting loads. (Count)
system.cpu.MemDepUnit__1.conflictingStores            0                       # Number of conflicting stores. (Count)
system.cpu.MemDepUnit__2.insertedLoads              0                       # Number of loads inserted to the mem dependence unit. (Count)
system.cpu.MemDepUnit__2.insertedStores             0                       # Number of stores inserted to the mem dependence unit. (Count)
system.cpu.MemDepUnit__2.conflictingLoads            0                       # Number of conflicting loads. (Count)
system.cpu.MemDepUnit__2.conflictingStores            0                       # Number of conflicting stores. (Count)
system.cpu.MemDepUnit__3.insertedLoads              0                       # Number of loads inserted to the mem dependence unit. (Count)
system.cpu.MemDepUnit__3.insertedStores             0                       # Number of stores inserted to the mem dependence unit. (Count)
system.cpu.MemDepUnit__3.conflictingLoads            0                       # Number of conflicting loads. (Count)
system.cpu.MemDepUnit__3.conflictingStores            0                       # Number of conflicting stores. (Count)
system.cpu.branchPred.lookups                 3391091                       # Number of BP lookups (Count)
system.cpu.branchPred.condPredicted           1652023                       # Number of conditional branches predicted (Count)
system.cpu.branchPred.condIncorrect             14951                       # Number of conditional branches incorrect (Count)
system.cpu.branchPred.BTBLookups              1385970                       # Number of BTB lookups (Count)
system.cpu.branchPred.BTBHits                 1381790                       # Number of BTB hits (Count)
system.cpu.branchPred.BTBHitRatio            0.996984                       # BTB Hit Ratio (Ratio)
system.cpu.branchPred.RASUsed                  574585                       # Number of times the RAS was used to get a target. (Count)
system.cpu.branchPred.RASIncorrect                992                       # Number of incorrect RAS predictions. (Count)
system.cpu.branchPred.indirectLookups          531184                       # Number of indirect predictor lookups. (Count)
system.cpu.branchPred.indirectHits             529747                       # Number of indirect target hits. (Count)
system.cpu.branchPred.indirectMisses             1437                       # Number of indirect misses. (Count)
system.cpu.branchPred.indirectMispredicted          311                       # Number of mispredicted indirect branches. (Count)
system.cpu.commit.commitSquashedInsts          554507                       # The number of squashed insts skipped by commit (Count)
system.cpu.commit.commitNonSpecStalls              18                       # The number of times commit has been forced to stall to communicate backwards (Count)
system.cpu.commit.branchMispredicts             13613                       # The number of times a branch was mispredicted (Count)
system.cpu.commit.numCommittedDist::samples     10506639                       # Number of insts commited each cycle (Count)
system.cpu.commit.numCommittedDist::mean     3.363252                       # Number of insts commited each cycle (Count)
system.cpu.commit.numCommittedDist::stdev     3.140113                       # Number of insts commited each cycle (Count)
system.cpu.commit.numCommittedDist::underflows            0      0.00%      0.00% # Number of insts commited each cycle (Count)
system.cpu.commit.numCommittedDist::0         2836555     27.00%     27.00% # Number of insts commited each cycle (Count)
system.cpu.commit.numCommittedDist::1          785883      7.48%     34.48% # Number of insts commited each cycle (Count)
system.cpu.commit.numCommittedDist::2         1932434     18.39%     52.87% # Number of insts commited each cycle (Count)
system.cpu.commit.numCommittedDist::3         1157683     11.02%     63.89% # Number of insts commited each cycle (Count)
system.cpu.commit.numCommittedDist::4          594142      5.65%     69.54% # Number of insts commited each cycle (Count)
system.cpu.commit.numCommittedDist::5           90064      0.86%     70.40% # Number of insts commited each cycle (Count)
system.cpu.commit.numCommittedDist::6           58954      0.56%     70.96% # Number of insts commited each cycle (Count)
system.cpu.commit.numCommittedDist::7          375327      3.57%     74.53% # Number of insts commited each cycle (Count)
system.cpu.commit.numCommittedDist::8         2675597     25.47%    100.00% # Number of insts commited each cycle (Count)
system.cpu.commit.numCommittedDist::overflows            0      0.00%    100.00% # Number of insts commited each cycle (Count)
system.cpu.commit.numCommittedDist::min_value            0                       # Number of insts commited each cycle (Count)
system.cpu.commit.numCommittedDist::max_value            8                       # Number of insts commited each cycle (Count)
system.cpu.commit.numCommittedDist::total     10506639                       # Number of insts commited each cycle (Count)
system.cpu.commit.instsCommitted             19928450                       # Number of instructions committed (Count)
system.cpu.commit.opsCommitted               35336477                       # Number of ops (including micro ops) committed (Count)
system.cpu.commit.memRefs                    12069539                       # Number of memory references committed (Count)
system.cpu.commit.loads                       7978510                       # Number of loads committed (Count)
system.cpu.commit.amos                              0                       # Number of atomic instructions committed (Count)
system.cpu.commit.membars                           0                       # Number of memory barriers committed (Count)
system.cpu.commit.branches                    3283692                       # Number of branches committed (Count)
system.cpu.commit.vectorInstructions                0                       # Number of committed Vector instructions. (Count)
system.cpu.commit.floating                    5154398                       # Number of committed floating point instructions. (Count)
system.cpu.commit.integer                    32657360                       # Number of committed integer instructions. (Count)
system.cpu.commit.functionCalls                563369                       # Number of function calls committed. (Count)
system.cpu.commit.committedInstType_0::No_OpClass       589130      1.67%      1.67% # Class of committed instruction (Count)
system.cpu.commit.committedInstType_0::IntAlu     20030633     56.69%     58.35% # Class of committed instruction (Count)
system.cpu.commit.committedInstType_0::IntMult       516165      1.46%     59.81% # Class of committed instruction (Count)
system.cpu.commit.committedInstType_0::IntDiv        53994      0.15%     59.97% # Class of committed instruction (Count)
system.cpu.commit.committedInstType_0::FloatAdd      1513865      4.28%     64.25% # Class of committed instruction (Count)
system.cpu.commit.committedInstType_0::FloatCmp            0      0.00%     64.25% # Class of committed instruction (Count)
system.cpu.commit.committedInstType_0::FloatCvt           32      0.00%     64.25% # Class of committed instruction (Count)
system.cpu.commit.committedInstType_0::FloatMult            0      0.00%     64.25% # Class of committed instruction (Count)
system.cpu.commit.committedInstType_0::FloatMultAcc            0      0.00%     64.25% # Class of committed instruction (Count)
system.cpu.commit.committedInstType_0::FloatDiv            0      0.00%     64.25% # Class of committed instruction (Count)
system.cpu.commit.committedInstType_0::FloatMisc            0      0.00%     64.25% # Class of committed instruction (Count)
system.cpu.commit.committedInstType_0::FloatSqrt            0      0.00%     64.25% # Class of committed instruction (Count)
system.cpu.commit.committedInstType_0::SimdAdd          326      0.00%     64.25% # Class of committed instruction (Count)
system.cpu.commit.committedInstType_0::SimdAddAcc            0      0.00%     64.25% # Class of committed instruction (Count)
system.cpu.commit.committedInstType_0::SimdAlu        18662      0.05%     64.30% # Class of committed instruction (Count)
system.cpu.commit.committedInstType_0::SimdCmp            6      0.00%     64.30% # Class of committed instruction (Count)
system.cpu.commit.committedInstType_0::SimdCvt        10720      0.03%     64.33% # Class of committed instruction (Count)
system.cpu.commit.committedInstType_0::SimdMisc        24821      0.07%     64.40% # Class of committed instruction (Count)
system.cpu.commit.committedInstType_0::SimdMult            0      0.00%     64.40% # Class of committed instruction (Count)
system.cpu.commit.committedInstType_0::SimdMultAcc            0      0.00%     64.40% # Class of committed instruction (Count)
system.cpu.commit.committedInstType_0::SimdShift           90      0.00%     64.40% # Class of committed instruction (Count)
system.cpu.commit.committedInstType_0::SimdShiftAcc            0      0.00%     64.40% # Class of committed instruction (Count)
system.cpu.commit.committedInstType_0::SimdDiv            0      0.00%     64.40% # Class of committed instruction (Count)
system.cpu.commit.committedInstType_0::SimdSqrt            0      0.00%     64.40% # Class of committed instruction (Count)
system.cpu.commit.committedInstType_0::SimdFloatAdd            0      0.00%     64.40% # Class of committed instruction (Count)
system.cpu.commit.committedInstType_0::SimdFloatAlu            0      0.00%     64.40% # Class of committed instruction (Count)
system.cpu.commit.committedInstType_0::SimdFloatCmp            0      0.00%     64.40% # Class of committed instruction (Count)
system.cpu.commit.committedInstType_0::SimdFloatCvt       508494      1.44%     65.84% # Class of committed instruction (Count)
system.cpu.commit.committedInstType_0::SimdFloatDiv            0      0.00%     65.84% # Class of committed instruction (Count)
system.cpu.commit.committedInstType_0::SimdFloatMisc            0      0.00%     65.84% # Class of committed instruction (Count)
system.cpu.commit.committedInstType_0::SimdFloatMult            0      0.00%     65.84% # Class of committed instruction (Count)
system.cpu.commit.committedInstType_0::SimdFloatMultAcc            0      0.00%     65.84% # Class of committed instruction (Count)
system.cpu.commit.committedInstType_0::SimdFloatSqrt            0      0.00%     65.84% # Class of committed instruction (Count)
system.cpu.commit.committedInstType_0::SimdReduceAdd            0      0.00%     65.84% # Class of committed instruction (Count)
system.cpu.commit.committedInstType_0::SimdReduceAlu            0      0.00%     65.84% # Class of committed instruction (Count)
system.cpu.commit.committedInstType_0::SimdReduceCmp            0      0.00%     65.84% # Class of committed instruction (Count)
system.cpu.commit.committedInstType_0::SimdFloatReduceAdd            0      0.00%     65.84% # Class of committed instruction (Count)
system.cpu.commit.committedInstType_0::SimdFloatReduceCmp            0      0.00%     65.84% # Class of committed instruction (Count)
system.cpu.commit.committedInstType_0::SimdAes            0      0.00%     65.84% # Class of committed instruction (Count)
system.cpu.commit.committedInstType_0::SimdAesMix            0      0.00%     65.84% # Class of committed instruction (Count)
system.cpu.commit.committedInstType_0::SimdSha1Hash            0      0.00%     65.84% # Class of committed instruction (Count)
system.cpu.commit.committedInstType_0::SimdSha1Hash2            0      0.00%     65.84% # Class of committed instruction (Count)
system.cpu.commit.committedInstType_0::SimdSha256Hash            0      0.00%     65.84% # Class of committed instruction (Count)
system.cpu.commit.committedInstType_0::SimdSha256Hash2            0      0.00%     65.84% # Class of committed instruction (Count)
system.cpu.commit.committedInstType_0::SimdShaSigma2            0      0.00%     65.84% # Class of committed instruction (Count)
system.cpu.commit.committedInstType_0::SimdShaSigma3            0      0.00%     65.84% # Class of committed instruction (Count)
system.cpu.commit.committedInstType_0::SimdPredAlu            0      0.00%     65.84% # Class of committed instruction (Count)
system.cpu.commit.committedInstType_0::MemRead      5941599     16.81%     82.66% # Class of committed instruction (Count)
system.cpu.commit.committedInstType_0::MemWrite      3058838      8.66%     91.31% # Class of committed instruction (Count)
system.cpu.commit.committedInstType_0::FloatMemRead      2036911      5.76%     97.08% # Class of committed instruction (Count)
system.cpu.commit.committedInstType_0::FloatMemWrite      1032191      2.92%    100.00% # Class of committed instruction (Count)
system.cpu.commit.committedInstType_0::IprAccess            0      0.00%    100.00% # Class of committed instruction (Count)
system.cpu.commit.committedInstType_0::InstPrefetch            0      0.00%    100.00% # Class of committed instruction (Count)
system.cpu.commit.committedInstType_0::total     35336477                       # Class of committed instruction (Count)
system.cpu.commit.commitEligibleSamples       2675597                       # number cycles where commit BW limit reached (Cycle)
system.cpu.dcache.demandHits::cpu.data        7859559                       # number of demand (read+write) hits (Count)
system.cpu.dcache.demandHits::total           7859559                       # number of demand (read+write) hits (Count)
system.cpu.dcache.overallHits::cpu.data       7859559                       # number of overall hits (Count)
system.cpu.dcache.overallHits::total          7859559                       # number of overall hits (Count)
system.cpu.dcache.demandMisses::cpu.data        35662                       # number of demand (read+write) misses (Count)
system.cpu.dcache.demandMisses::total           35662                       # number of demand (read+write) misses (Count)
system.cpu.dcache.overallMisses::cpu.data        35662                       # number of overall misses (Count)
system.cpu.dcache.overallMisses::total          35662                       # number of overall misses (Count)
system.cpu.dcache.demandMissLatency::cpu.data   1289389499                       # number of demand (read+write) miss ticks (Tick)
system.cpu.dcache.demandMissLatency::total   1289389499                       # number of demand (read+write) miss ticks (Tick)
system.cpu.dcache.overallMissLatency::cpu.data   1289389499                       # number of overall miss ticks (Tick)
system.cpu.dcache.overallMissLatency::total   1289389499                       # number of overall miss ticks (Tick)
system.cpu.dcache.demandAccesses::cpu.data      7895221                       # number of demand (read+write) accesses (Count)
system.cpu.dcache.demandAccesses::total       7895221                       # number of demand (read+write) accesses (Count)
system.cpu.dcache.overallAccesses::cpu.data      7895221                       # number of overall (read+write) accesses (Count)
system.cpu.dcache.overallAccesses::total      7895221                       # number of overall (read+write) accesses (Count)
system.cpu.dcache.demandMissRate::cpu.data     0.004517                       # miss rate for demand accesses (Ratio)
system.cpu.dcache.demandMissRate::total      0.004517                       # miss rate for demand accesses (Ratio)
system.cpu.dcache.overallMissRate::cpu.data     0.004517                       # miss rate for overall accesses (Ratio)
system.cpu.dcache.overallMissRate::total     0.004517                       # miss rate for overall accesses (Ratio)
system.cpu.dcache.demandAvgMissLatency::cpu.data 36155.838119                       # average overall miss latency ((Cycle/Count))
system.cpu.dcache.demandAvgMissLatency::total 36155.838119                       # average overall miss latency ((Cycle/Count))
system.cpu.dcache.overallAvgMissLatency::cpu.data 36155.838119                       # average overall miss latency ((Cycle/Count))
system.cpu.dcache.overallAvgMissLatency::total 36155.838119                       # average overall miss latency ((Cycle/Count))
system.cpu.dcache.blockedCycles::no_mshrs        16326                       # number of cycles access was blocked (Cycle)
system.cpu.dcache.blockedCycles::no_targets           28                       # number of cycles access was blocked (Cycle)
system.cpu.dcache.blockedCauses::no_mshrs          336                       # number of times access was blocked (Count)
system.cpu.dcache.blockedCauses::no_targets            1                       # number of times access was blocked (Count)
system.cpu.dcache.avgBlocked::no_mshrs      48.589286                       # average number of cycles each access was blocked ((Cycle/Count))
system.cpu.dcache.avgBlocked::no_targets           28                       # average number of cycles each access was blocked ((Cycle/Count))
system.cpu.dcache.writebacks::writebacks         9403                       # number of writebacks (Count)
system.cpu.dcache.writebacks::total              9403                       # number of writebacks (Count)
system.cpu.dcache.demandMshrHits::cpu.data        21429                       # number of demand (read+write) MSHR hits (Count)
system.cpu.dcache.demandMshrHits::total         21429                       # number of demand (read+write) MSHR hits (Count)
system.cpu.dcache.overallMshrHits::cpu.data        21429                       # number of overall MSHR hits (Count)
system.cpu.dcache.overallMshrHits::total        21429                       # number of overall MSHR hits (Count)
system.cpu.dcache.demandMshrMisses::cpu.data        14233                       # number of demand (read+write) MSHR misses (Count)
system.cpu.dcache.demandMshrMisses::total        14233                       # number of demand (read+write) MSHR misses (Count)
system.cpu.dcache.overallMshrMisses::cpu.data        14233                       # number of overall MSHR misses (Count)
system.cpu.dcache.overallMshrMisses::total        14233                       # number of overall MSHR misses (Count)
system.cpu.dcache.demandMshrMissLatency::cpu.data    561048499                       # number of demand (read+write) MSHR miss ticks (Tick)
system.cpu.dcache.demandMshrMissLatency::total    561048499                       # number of demand (read+write) MSHR miss ticks (Tick)
system.cpu.dcache.overallMshrMissLatency::cpu.data    561048499                       # number of overall MSHR miss ticks (Tick)
system.cpu.dcache.overallMshrMissLatency::total    561048499                       # number of overall MSHR miss ticks (Tick)
system.cpu.dcache.demandMshrMissRate::cpu.data     0.001803                       # mshr miss ratio for demand accesses (Ratio)
system.cpu.dcache.demandMshrMissRate::total     0.001803                       # mshr miss ratio for demand accesses (Ratio)
system.cpu.dcache.overallMshrMissRate::cpu.data     0.001803                       # mshr miss ratio for overall accesses (Ratio)
system.cpu.dcache.overallMshrMissRate::total     0.001803                       # mshr miss ratio for overall accesses (Ratio)
system.cpu.dcache.demandAvgMshrMissLatency::cpu.data 39418.850488                       # average overall mshr miss latency ((Cycle/Count))
system.cpu.dcache.demandAvgMshrMissLatency::total 39418.850488                       # average overall mshr miss latency ((Cycle/Count))
system.cpu.dcache.overallAvgMshrMissLatency::cpu.data 39418.850488                       # average overall mshr miss latency ((Cycle/Count))
system.cpu.dcache.overallAvgMshrMissLatency::total 39418.850488                       # average overall mshr miss latency ((Cycle/Count))
system.cpu.dcache.replacements                  13721                       # number of replacements (Count)
system.cpu.dcache.ReadReq.hits::cpu.data      3772258                       # number of ReadReq hits (Count)
system.cpu.dcache.ReadReq.hits::total         3772258                       # number of ReadReq hits (Count)
system.cpu.dcache.ReadReq.misses::cpu.data        31934                       # number of ReadReq misses (Count)
system.cpu.dcache.ReadReq.misses::total         31934                       # number of ReadReq misses (Count)
system.cpu.dcache.ReadReq.missLatency::cpu.data   1140764000                       # number of ReadReq miss ticks (Tick)
system.cpu.dcache.ReadReq.missLatency::total   1140764000                       # number of ReadReq miss ticks (Tick)
system.cpu.dcache.ReadReq.accesses::cpu.data      3804192                       # number of ReadReq accesses(hits+misses) (Count)
system.cpu.dcache.ReadReq.accesses::total      3804192                       # number of ReadReq accesses(hits+misses) (Count)
system.cpu.dcache.ReadReq.missRate::cpu.data     0.008394                       # miss rate for ReadReq accesses (Ratio)
system.cpu.dcache.ReadReq.missRate::total     0.008394                       # miss rate for ReadReq accesses (Ratio)
system.cpu.dcache.ReadReq.avgMissLatency::cpu.data 35722.552765                       # average ReadReq miss latency ((Tick/Count))
system.cpu.dcache.ReadReq.avgMissLatency::total 35722.552765                       # average ReadReq miss latency ((Tick/Count))
system.cpu.dcache.ReadReq.mshrHits::cpu.data        20448                       # number of ReadReq MSHR hits (Count)
system.cpu.dcache.ReadReq.mshrHits::total        20448                       # number of ReadReq MSHR hits (Count)
system.cpu.dcache.ReadReq.mshrMisses::cpu.data        11486                       # number of ReadReq MSHR misses (Count)
system.cpu.dcache.ReadReq.mshrMisses::total        11486                       # number of ReadReq MSHR misses (Count)
system.cpu.dcache.ReadReq.mshrMissLatency::cpu.data    422059000                       # number of ReadReq MSHR miss ticks (Tick)
system.cpu.dcache.ReadReq.mshrMissLatency::total    422059000                       # number of ReadReq MSHR miss ticks (Tick)
system.cpu.dcache.ReadReq.mshrMissRate::cpu.data     0.003019                       # mshr miss rate for ReadReq accesses (Ratio)
system.cpu.dcache.ReadReq.mshrMissRate::total     0.003019                       # mshr miss rate for ReadReq accesses (Ratio)
system.cpu.dcache.ReadReq.avgMshrMissLatency::cpu.data 36745.516281                       # average ReadReq mshr miss latency ((Tick/Count))
system.cpu.dcache.ReadReq.avgMshrMissLatency::total 36745.516281                       # average ReadReq mshr miss latency ((Tick/Count))
system.cpu.dcache.WriteReq.hits::cpu.data      4087301                       # number of WriteReq hits (Count)
system.cpu.dcache.WriteReq.hits::total        4087301                       # number of WriteReq hits (Count)
system.cpu.dcache.WriteReq.misses::cpu.data         3728                       # number of WriteReq misses (Count)
system.cpu.dcache.WriteReq.misses::total         3728                       # number of WriteReq misses (Count)
system.cpu.dcache.WriteReq.missLatency::cpu.data    148625499                       # number of WriteReq miss ticks (Tick)
system.cpu.dcache.WriteReq.missLatency::total    148625499                       # number of WriteReq miss ticks (Tick)
system.cpu.dcache.WriteReq.accesses::cpu.data      4091029                       # number of WriteReq accesses(hits+misses) (Count)
system.cpu.dcache.WriteReq.accesses::total      4091029                       # number of WriteReq accesses(hits+misses) (Count)
system.cpu.dcache.WriteReq.missRate::cpu.data     0.000911                       # miss rate for WriteReq accesses (Ratio)
system.cpu.dcache.WriteReq.missRate::total     0.000911                       # miss rate for WriteReq accesses (Ratio)
system.cpu.dcache.WriteReq.avgMissLatency::cpu.data 39867.354882                       # average WriteReq miss latency ((Tick/Count))
system.cpu.dcache.WriteReq.avgMissLatency::total 39867.354882                       # average WriteReq miss latency ((Tick/Count))
system.cpu.dcache.WriteReq.mshrHits::cpu.data          981                       # number of WriteReq MSHR hits (Count)
system.cpu.dcache.WriteReq.mshrHits::total          981                       # number of WriteReq MSHR hits (Count)
system.cpu.dcache.WriteReq.mshrMisses::cpu.data         2747                       # number of WriteReq MSHR misses (Count)
system.cpu.dcache.WriteReq.mshrMisses::total         2747                       # number of WriteReq MSHR misses (Count)
system.cpu.dcache.WriteReq.mshrMissLatency::cpu.data    138989499                       # number of WriteReq MSHR miss ticks (Tick)
system.cpu.dcache.WriteReq.mshrMissLatency::total    138989499                       # number of WriteReq MSHR miss ticks (Tick)
system.cpu.dcache.WriteReq.mshrMissRate::cpu.data     0.000671                       # mshr miss rate for WriteReq accesses (Ratio)
system.cpu.dcache.WriteReq.mshrMissRate::total     0.000671                       # mshr miss rate for WriteReq accesses (Ratio)
system.cpu.dcache.WriteReq.avgMshrMissLatency::cpu.data 50596.832545                       # average WriteReq mshr miss latency ((Tick/Count))
system.cpu.dcache.WriteReq.avgMshrMissLatency::total 50596.832545                       # average WriteReq mshr miss latency ((Tick/Count))
system.cpu.dcache.power_state.pwrStateResidencyTicks::UNDEFINED   5341717000                       # Cumulative time (in ticks) in various power states (Tick)
system.cpu.dcache.tags.tagsInUse           509.188064                       # Average ticks per tags in use ((Tick/Count))
system.cpu.dcache.tags.totalRefs              7873792                       # Total number of references to valid blocks. (Count)
system.cpu.dcache.tags.sampledRefs              14233                       # Sample count of references to valid blocks. (Count)
system.cpu.dcache.tags.avgRefs             553.206773                       # Average number of references to valid blocks. ((Count/Count))
system.cpu.dcache.tags.warmupTick              168000                       # The tick when the warmup percentage was hit. (Tick)
system.cpu.dcache.tags.occupancies::cpu.data   509.188064                       # Average occupied blocks per tick, per requestor ((Count/Tick))
system.cpu.dcache.tags.avgOccs::cpu.data     0.994508                       # Average percentage of cache occupancy ((Ratio/Tick))
system.cpu.dcache.tags.avgOccs::total        0.994508                       # Average percentage of cache occupancy ((Ratio/Tick))
system.cpu.dcache.tags.occupanciesTaskId::1024          512                       # Occupied blocks per task id (Count)
system.cpu.dcache.tags.ageTaskId_1024::0           54                       # Occupied blocks per task id, per block age (Count)
system.cpu.dcache.tags.ageTaskId_1024::1           13                       # Occupied blocks per task id, per block age (Count)
system.cpu.dcache.tags.ageTaskId_1024::2          445                       # Occupied blocks per task id, per block age (Count)
system.cpu.dcache.tags.ratioOccsTaskId::1024            1                       # Ratio of occupied blocks and all blocks, per task id (Ratio)
system.cpu.dcache.tags.tagAccesses           15804675                       # Number of tag accesses (Count)
system.cpu.dcache.tags.dataAccesses          15804675                       # Number of data accesses (Count)
system.cpu.dcache.tags.power_state.pwrStateResidencyTicks::UNDEFINED   5341717000                       # Cumulative time (in ticks) in various power states (Tick)
system.cpu.decode.idleCycles                  3639793                       # Number of cycles decode is idle (Cycle)
system.cpu.decode.blockedCycles                632154                       # Number of cycles decode is blocked (Cycle)
system.cpu.decode.runCycles                   6210776                       # Number of cycles decode is running (Cycle)
system.cpu.decode.unblockCycles                 88109                       # Number of cycles decode is unblocking (Cycle)
system.cpu.decode.squashCycles                  15188                       # Number of cycles decode is squashing (Cycle)
system.cpu.decode.branchResolved              1377941                       # Number of times decode resolved a branch (Count)
system.cpu.decode.branchMispred                  1617                       # Number of times decode detected a branch misprediction (Count)
system.cpu.decode.decodedInsts               36095968                       # Number of instructions handled by decode (Count)
system.cpu.decode.squashedInsts                  3859                       # Number of squashed instructions handled by decode (Count)
system.cpu.fetch.icacheStallCycles            3716591                       # Number of cycles fetch is stalled on an Icache miss (Cycle)
system.cpu.fetch.insts                       20396265                       # Number of instructions fetch has processed (Count)
system.cpu.fetch.branches                     3391091                       # Number of branches that fetch encountered (Count)
system.cpu.fetch.predictedBranches            2486122                       # Number of branches that fetch has predicted taken (Count)
system.cpu.fetch.cycles                       6850083                       # Number of cycles fetch has run and was not squashing or blocked (Cycle)
system.cpu.fetch.squashCycles                   33584                       # Number of cycles fetch has spent squashing (Cycle)
system.cpu.fetch.miscStallCycles                  293                       # Number of cycles fetch has spent waiting on interrupts, or bad addresses, or out of MSHRs (Cycle)
system.cpu.fetch.pendingTrapStallCycles          2124                       # Number of stall cycles due to pending traps (Cycle)
system.cpu.fetch.pendingQuiesceStallCycles          137                       # Number of stall cycles due to pending quiesce instructions (Cycle)
system.cpu.fetch.cacheLines                   3666816                       # Number of cache lines fetched (Count)
system.cpu.fetch.icacheSquashes                  5277                       # Number of outstanding Icache misses that were squashed (Count)
system.cpu.fetch.nisnDist::samples           10586020                       # Number of instructions fetched each cycle (Total) (Count)
system.cpu.fetch.nisnDist::mean              3.421949                       # Number of instructions fetched each cycle (Total) (Count)
system.cpu.fetch.nisnDist::stdev             3.481641                       # Number of instructions fetched each cycle (Total) (Count)
system.cpu.fetch.nisnDist::underflows               0      0.00%      0.00% # Number of instructions fetched each cycle (Total) (Count)
system.cpu.fetch.nisnDist::0                  4200522     39.68%     39.68% # Number of instructions fetched each cycle (Total) (Count)
system.cpu.fetch.nisnDist::1                  1090896     10.31%     49.98% # Number of instructions fetched each cycle (Total) (Count)
system.cpu.fetch.nisnDist::2                   105907      1.00%     50.99% # Number of instructions fetched each cycle (Total) (Count)
system.cpu.fetch.nisnDist::3                   129059      1.22%     52.20% # Number of instructions fetched each cycle (Total) (Count)
system.cpu.fetch.nisnDist::4                  1095659     10.35%     62.55% # Number of instructions fetched each cycle (Total) (Count)
system.cpu.fetch.nisnDist::5                   100701      0.95%     63.51% # Number of instructions fetched each cycle (Total) (Count)
system.cpu.fetch.nisnDist::6                   584400      5.52%     69.03% # Number of instructions fetched each cycle (Total) (Count)
system.cpu.fetch.nisnDist::7                    88616      0.84%     69.86% # Number of instructions fetched each cycle (Total) (Count)
system.cpu.fetch.nisnDist::8                  3190260     30.14%    100.00% # Number of instructions fetched each cycle (Total) (Count)
system.cpu.fetch.nisnDist::overflows                0      0.00%    100.00% # Number of instructions fetched each cycle (Total) (Count)
system.cpu.fetch.nisnDist::min_value                0                       # Number of instructions fetched each cycle (Total) (Count)
system.cpu.fetch.nisnDist::max_value                8                       # Number of instructions fetched each cycle (Total) (Count)
system.cpu.fetch.nisnDist::total             10586020                       # Number of instructions fetched each cycle (Total) (Count)
system.cpu.fetch.branchRate                  0.317416                       # Number of branch fetches per cycle (Ratio)
system.cpu.fetch.rate                        1.909149                       # Number of inst fetches per cycle ((Count/Cycle))
system.cpu.icache.demandHits::cpu.inst        3665012                       # number of demand (read+write) hits (Count)
system.cpu.icache.demandHits::total           3665012                       # number of demand (read+write) hits (Count)
system.cpu.icache.overallHits::cpu.inst       3665012                       # number of overall hits (Count)
system.cpu.icache.overallHits::total          3665012                       # number of overall hits (Count)
system.cpu.icache.demandMisses::cpu.inst         1804                       # number of demand (read+write) misses (Count)
system.cpu.icache.demandMisses::total            1804                       # number of demand (read+write) misses (Count)
system.cpu.icache.overallMisses::cpu.inst         1804                       # number of overall misses (Count)
system.cpu.icache.overallMisses::total           1804                       # number of overall misses (Count)
system.cpu.icache.demandMissLatency::cpu.inst    126898500                       # number of demand (read+write) miss ticks (Tick)
system.cpu.icache.demandMissLatency::total    126898500                       # number of demand (read+write) miss ticks (Tick)
system.cpu.icache.overallMissLatency::cpu.inst    126898500                       # number of overall miss ticks (Tick)
system.cpu.icache.overallMissLatency::total    126898500                       # number of overall miss ticks (Tick)
system.cpu.icache.demandAccesses::cpu.inst      3666816                       # number of demand (read+write) accesses (Count)
system.cpu.icache.demandAccesses::total       3666816                       # number of demand (read+write) accesses (Count)
system.cpu.icache.overallAccesses::cpu.inst      3666816                       # number of overall (read+write) accesses (Count)
system.cpu.icache.overallAccesses::total      3666816                       # number of overall (read+write) accesses (Count)
system.cpu.icache.demandMissRate::cpu.inst     0.000492                       # miss rate for demand accesses (Ratio)
system.cpu.icache.demandMissRate::total      0.000492                       # miss rate for demand accesses (Ratio)
system.cpu.icache.overallMissRate::cpu.inst     0.000492                       # miss rate for overall accesses (Ratio)
system.cpu.icache.overallMissRate::total     0.000492                       # miss rate for overall accesses (Ratio)
system.cpu.icache.demandAvgMissLatency::cpu.inst 70342.849224                       # average overall miss latency ((Cycle/Count))
system.cpu.icache.demandAvgMissLatency::total 70342.849224                       # average overall miss latency ((Cycle/Count))
system.cpu.icache.overallAvgMissLatency::cpu.inst 70342.849224                       # average overall miss latency ((Cycle/Count))
system.cpu.icache.overallAvgMissLatency::total 70342.849224                       # average overall miss latency ((Cycle/Count))
system.cpu.icache.blockedCycles::no_mshrs          156                       # number of cycles access was blocked (Cycle)
system.cpu.icache.blockedCycles::no_targets            0                       # number of cycles access was blocked (Cycle)
system.cpu.icache.blockedCauses::no_mshrs            3                       # number of times access was blocked (Count)
system.cpu.icache.blockedCauses::no_targets            0                       # number of times access was blocked (Count)
system.cpu.icache.avgBlocked::no_mshrs             52                       # average number of cycles each access was blocked ((Cycle/Count))
system.cpu.icache.avgBlocked::no_targets          nan                       # average number of cycles each access was blocked ((Cycle/Count))
system.cpu.icache.demandMshrHits::cpu.inst          431                       # number of demand (read+write) MSHR hits (Count)
system.cpu.icache.demandMshrHits::total           431                       # number of demand (read+write) MSHR hits (Count)
system.cpu.icache.overallMshrHits::cpu.inst          431                       # number of overall MSHR hits (Count)
system.cpu.icache.overallMshrHits::total          431                       # number of overall MSHR hits (Count)
system.cpu.icache.demandMshrMisses::cpu.inst         1373                       # number of demand (read+write) MSHR misses (Count)
system.cpu.icache.demandMshrMisses::total         1373                       # number of demand (read+write) MSHR misses (Count)
system.cpu.icache.overallMshrMisses::cpu.inst         1373                       # number of overall MSHR misses (Count)
system.cpu.icache.overallMshrMisses::total         1373                       # number of overall MSHR misses (Count)
system.cpu.icache.demandMshrMissLatency::cpu.inst    100243500                       # number of demand (read+write) MSHR miss ticks (Tick)
system.cpu.icache.demandMshrMissLatency::total    100243500                       # number of demand (read+write) MSHR miss ticks (Tick)
system.cpu.icache.overallMshrMissLatency::cpu.inst    100243500                       # number of overall MSHR miss ticks (Tick)
system.cpu.icache.overallMshrMissLatency::total    100243500                       # number of overall MSHR miss ticks (Tick)
system.cpu.icache.demandMshrMissRate::cpu.inst     0.000374                       # mshr miss ratio for demand accesses (Ratio)
system.cpu.icache.demandMshrMissRate::total     0.000374                       # mshr miss ratio for demand accesses (Ratio)
system.cpu.icache.overallMshrMissRate::cpu.inst     0.000374                       # mshr miss ratio for overall accesses (Ratio)
system.cpu.icache.overallMshrMissRate::total     0.000374                       # mshr miss ratio for overall accesses (Ratio)
system.cpu.icache.demandAvgMshrMissLatency::cpu.inst 73010.560816                       # average overall mshr miss latency ((Cycle/Count))
system.cpu.icache.demandAvgMshrMissLatency::total 73010.560816                       # average overall mshr miss latency ((Cycle/Count))
system.cpu.icache.overallAvgMshrMissLatency::cpu.inst 73010.560816                       # average overall mshr miss latency ((Cycle/Count))
system.cpu.icache.overallAvgMshrMissLatency::total 73010.560816                       # average overall mshr miss latency ((Cycle/Count))
system.cpu.icache.replacements                    482                       # number of replacements (Count)
system.cpu.icache.ReadReq.hits::cpu.inst      3665012                       # number of ReadReq hits (Count)
system.cpu.icache.ReadReq.hits::total         3665012                       # number of ReadReq hits (Count)
system.cpu.icache.ReadReq.misses::cpu.inst         1804                       # number of ReadReq misses (Count)
system.cpu.icache.ReadReq.misses::total          1804                       # number of ReadReq misses (Count)
system.cpu.icache.ReadReq.missLatency::cpu.inst    126898500                       # number of ReadReq miss ticks (Tick)
system.cpu.icache.ReadReq.missLatency::total    126898500                       # number of ReadReq miss ticks (Tick)
system.cpu.icache.ReadReq.accesses::cpu.inst      3666816                       # number of ReadReq accesses(hits+misses) (Count)
system.cpu.icache.ReadReq.accesses::total      3666816                       # number of ReadReq accesses(hits+misses) (Count)
system.cpu.icache.ReadReq.missRate::cpu.inst     0.000492                       # miss rate for ReadReq accesses (Ratio)
system.cpu.icache.ReadReq.missRate::total     0.000492                       # miss rate for ReadReq accesses (Ratio)
system.cpu.icache.ReadReq.avgMissLatency::cpu.inst 70342.849224                       # average ReadReq miss latency ((Tick/Count))
system.cpu.icache.ReadReq.avgMissLatency::total 70342.849224                       # average ReadReq miss latency ((Tick/Count))
system.cpu.icache.ReadReq.mshrHits::cpu.inst          431                       # number of ReadReq MSHR hits (Count)
system.cpu.icache.ReadReq.mshrHits::total          431                       # number of ReadReq MSHR hits (Count)
system.cpu.icache.ReadReq.mshrMisses::cpu.inst         1373                       # number of ReadReq MSHR misses (Count)
system.cpu.icache.ReadReq.mshrMisses::total         1373                       # number of ReadReq MSHR misses (Count)
system.cpu.icache.ReadReq.mshrMissLatency::cpu.inst    100243500                       # number of ReadReq MSHR miss ticks (Tick)
system.cpu.icache.ReadReq.mshrMissLatency::total    100243500                       # number of ReadReq MSHR miss ticks (Tick)
system.cpu.icache.ReadReq.mshrMissRate::cpu.inst     0.000374                       # mshr miss rate for ReadReq accesses (Ratio)
system.cpu.icache.ReadReq.mshrMissRate::total     0.000374                       # mshr miss rate for ReadReq accesses (Ratio)
system.cpu.icache.ReadReq.avgMshrMissLatency::cpu.inst 73010.560816                       # average ReadReq mshr miss latency ((Tick/Count))
system.cpu.icache.ReadReq.avgMshrMissLatency::total 73010.560816                       # average ReadReq mshr miss latency ((Tick/Count))
system.cpu.icache.power_state.pwrStateResidencyTicks::UNDEFINED   5341717000                       # Cumulative time (in ticks) in various power states (Tick)
system.cpu.icache.tags.tagsInUse           745.808969                       # Average ticks per tags in use ((Tick/Count))
system.cpu.icache.tags.totalRefs              3666384                       # Total number of references to valid blocks. (Count)
system.cpu.icache.tags.sampledRefs               1372                       # Sample count of references to valid blocks. (Count)
system.cpu.icache.tags.avgRefs            2672.291545                       # Average number of references to valid blocks. ((Count/Count))
system.cpu.icache.tags.warmupTick               82000                       # The tick when the warmup percentage was hit. (Tick)
system.cpu.icache.tags.occupancies::cpu.inst   745.808969                       # Average occupied blocks per tick, per requestor ((Count/Tick))
system.cpu.icache.tags.avgOccs::cpu.inst     0.728329                       # Average percentage of cache occupancy ((Ratio/Tick))
system.cpu.icache.tags.avgOccs::total        0.728329                       # Average percentage of cache occupancy ((Ratio/Tick))
system.cpu.icache.tags.occupanciesTaskId::1024          890                       # Occupied blocks per task id (Count)
system.cpu.icache.tags.ageTaskId_1024::0           88                       # Occupied blocks per task id, per block age (Count)
system.cpu.icache.tags.ageTaskId_1024::2          327                       # Occupied blocks per task id, per block age (Count)
system.cpu.icache.tags.ageTaskId_1024::3          475                       # Occupied blocks per task id, per block age (Count)
system.cpu.icache.tags.ratioOccsTaskId::1024     0.869141                       # Ratio of occupied blocks and all blocks, per task id (Ratio)
system.cpu.icache.tags.tagAccesses            7335004                       # Number of tag accesses (Count)
system.cpu.icache.tags.dataAccesses           7335004                       # Number of data accesses (Count)
system.cpu.icache.tags.power_state.pwrStateResidencyTicks::UNDEFINED   5341717000                       # Cumulative time (in ticks) in various power states (Tick)
system.cpu.iew.idleCycles                           0                       # Number of cycles IEW is idle (Cycle)
system.cpu.iew.squashCycles                     15188                       # Number of cycles IEW is squashing (Cycle)
system.cpu.iew.blockCycles                     182687                       # Number of cycles IEW is blocking (Cycle)
system.cpu.iew.unblockCycles                    10816                       # Number of cycles IEW is unblocking (Cycle)
system.cpu.iew.dispatchedInsts               35927985                       # Number of instructions dispatched to IQ (Count)
system.cpu.iew.dispSquashedInsts                  401                       # Number of squashed instructions skipped by dispatch (Count)
system.cpu.iew.dispLoadInsts                  8064607                       # Number of dispatched load instructions (Count)
system.cpu.iew.dispStoreInsts                 4113998                       # Number of dispatched store instructions (Count)
system.cpu.iew.dispNonSpecInsts                    34                       # Number of dispatched non-speculative instructions (Count)
system.cpu.iew.iqFullEvents                      3594                       # Number of times the IQ has become full, causing a stall (Count)
system.cpu.iew.lsqFullEvents                     6747                       # Number of times the LSQ has become full, causing a stall (Count)
system.cpu.iew.memOrderViolationEvents            536                       # Number of memory order violations (Count)
system.cpu.iew.predictedTakenIncorrect           6123                       # Number of branches that were predicted taken incorrectly (Count)
system.cpu.iew.predictedNotTakenIncorrect         9384                       # Number of branches that were predicted not taken incorrectly (Count)
system.cpu.iew.branchMispredicts                15507                       # Number of branch mispredicts detected at execute (Count)
system.cpu.iew.instsToCommit                 35724383                       # Cumulative count of insts sent to commit (Count)
system.cpu.iew.writebackCount                35717253                       # Cumulative count of insts written-back (Count)
system.cpu.iew.producerInst                  22871365                       # Number of instructions producing a value (Count)
system.cpu.iew.consumerInst                  30435209                       # Number of instructions consuming a value (Count)
system.cpu.iew.wbRate                        3.343237                       # Insts written-back per cycle ((Count/Cycle))
system.cpu.iew.wbFanout                      0.751477                       # Average fanout of values written-back ((Count/Count))
system.cpu.interrupts.clk_domain.clock           8000                       # Clock period in ticks (Tick)
system.cpu.l2cache.demandHits::cpu.inst            59                       # number of demand (read+write) hits (Count)
system.cpu.l2cache.demandHits::cpu.data          8208                       # number of demand (read+write) hits (Count)
system.cpu.l2cache.demandHits::total             8267                       # number of demand (read+write) hits (Count)
system.cpu.l2cache.overallHits::cpu.inst           59                       # number of overall hits (Count)
system.cpu.l2cache.overallHits::cpu.data         8208                       # number of overall hits (Count)
system.cpu.l2cache.overallHits::total            8267                       # number of overall hits (Count)
system.cpu.l2cache.demandMisses::cpu.inst         1314                       # number of demand (read+write) misses (Count)
system.cpu.l2cache.demandMisses::cpu.data         6025                       # number of demand (read+write) misses (Count)
system.cpu.l2cache.demandMisses::total           7339                       # number of demand (read+write) misses (Count)
system.cpu.l2cache.overallMisses::cpu.inst         1314                       # number of overall misses (Count)
system.cpu.l2cache.overallMisses::cpu.data         6025                       # number of overall misses (Count)
system.cpu.l2cache.overallMisses::total          7339                       # number of overall misses (Count)
system.cpu.l2cache.demandMissLatency::cpu.inst     97558000                       # number of demand (read+write) miss ticks (Tick)
system.cpu.l2cache.demandMissLatency::cpu.data    453360500                       # number of demand (read+write) miss ticks (Tick)
system.cpu.l2cache.demandMissLatency::total    550918500                       # number of demand (read+write) miss ticks (Tick)
system.cpu.l2cache.overallMissLatency::cpu.inst     97558000                       # number of overall miss ticks (Tick)
system.cpu.l2cache.overallMissLatency::cpu.data    453360500                       # number of overall miss ticks (Tick)
system.cpu.l2cache.overallMissLatency::total    550918500                       # number of overall miss ticks (Tick)
system.cpu.l2cache.demandAccesses::cpu.inst         1373                       # number of demand (read+write) accesses (Count)
system.cpu.l2cache.demandAccesses::cpu.data        14233                       # number of demand (read+write) accesses (Count)
system.cpu.l2cache.demandAccesses::total        15606                       # number of demand (read+write) accesses (Count)
system.cpu.l2cache.overallAccesses::cpu.inst         1373                       # number of overall (read+write) accesses (Count)
system.cpu.l2cache.overallAccesses::cpu.data        14233                       # number of overall (read+write) accesses (Count)
system.cpu.l2cache.overallAccesses::total        15606                       # number of overall (read+write) accesses (Count)
system.cpu.l2cache.demandMissRate::cpu.inst     0.957028                       # miss rate for demand accesses (Ratio)
system.cpu.l2cache.demandMissRate::cpu.data     0.423312                       # miss rate for demand accesses (Ratio)
system.cpu.l2cache.demandMissRate::total     0.470268                       # miss rate for demand accesses (Ratio)
system.cpu.l2cache.overallMissRate::cpu.inst     0.957028                       # miss rate for overall accesses (Ratio)
system.cpu.l2cache.overallMissRate::cpu.data     0.423312                       # miss rate for overall accesses (Ratio)
system.cpu.l2cache.overallMissRate::total     0.470268                       # miss rate for overall accesses (Ratio)
system.cpu.l2cache.demandAvgMissLatency::cpu.inst 74245.053272                       # average overall miss latency ((Cycle/Count))
system.cpu.l2cache.demandAvgMissLatency::cpu.data 75246.556017                       # average overall miss latency ((Cycle/Count))
system.cpu.l2cache.demandAvgMissLatency::total 75067.243494                       # average overall miss latency ((Cycle/Count))
system.cpu.l2cache.overallAvgMissLatency::cpu.inst 74245.053272                       # average overall miss latency ((Cycle/Count))
system.cpu.l2cache.overallAvgMissLatency::cpu.data 75246.556017                       # average overall miss latency ((Cycle/Count))
system.cpu.l2cache.overallAvgMissLatency::total 75067.243494                       # average overall miss latency ((Cycle/Count))
system.cpu.l2cache.blockedCycles::no_mshrs            0                       # number of cycles access was blocked (Cycle)
system.cpu.l2cache.blockedCycles::no_targets            0                       # number of cycles access was blocked (Cycle)
system.cpu.l2cache.blockedCauses::no_mshrs            0                       # number of times access was blocked (Count)
system.cpu.l2cache.blockedCauses::no_targets            0                       # number of times access was blocked (Count)
system.cpu.l2cache.avgBlocked::no_mshrs           nan                       # average number of cycles each access was blocked ((Cycle/Count))
system.cpu.l2cache.avgBlocked::no_targets          nan                       # average number of cycles each access was blocked ((Cycle/Count))
system.cpu.l2cache.writebacks::writebacks         1505                       # number of writebacks (Count)
system.cpu.l2cache.writebacks::total             1505                       # number of writebacks (Count)
system.cpu.l2cache.demandMshrMisses::cpu.inst         1314                       # number of demand (read+write) MSHR misses (Count)
system.cpu.l2cache.demandMshrMisses::cpu.data         6025                       # number of demand (read+write) MSHR misses (Count)
system.cpu.l2cache.demandMshrMisses::total         7339                       # number of demand (read+write) MSHR misses (Count)
system.cpu.l2cache.overallMshrMisses::cpu.inst         1314                       # number of overall MSHR misses (Count)
system.cpu.l2cache.overallMshrMisses::cpu.data         6025                       # number of overall MSHR misses (Count)
system.cpu.l2cache.overallMshrMisses::total         7339                       # number of overall MSHR misses (Count)
system.cpu.l2cache.demandMshrMissLatency::cpu.inst     84428000                       # number of demand (read+write) MSHR miss ticks (Tick)
system.cpu.l2cache.demandMshrMissLatency::cpu.data    393110500                       # number of demand (read+write) MSHR miss ticks (Tick)
system.cpu.l2cache.demandMshrMissLatency::total    477538500                       # number of demand (read+write) MSHR miss ticks (Tick)
system.cpu.l2cache.overallMshrMissLatency::cpu.inst     84428000                       # number of overall MSHR miss ticks (Tick)
system.cpu.l2cache.overallMshrMissLatency::cpu.data    393110500                       # number of overall MSHR miss ticks (Tick)
system.cpu.l2cache.overallMshrMissLatency::total    477538500                       # number of overall MSHR miss ticks (Tick)
system.cpu.l2cache.demandMshrMissRate::cpu.inst     0.957028                       # mshr miss ratio for demand accesses (Ratio)
system.cpu.l2cache.demandMshrMissRate::cpu.data     0.423312                       # mshr miss ratio for demand accesses (Ratio)
system.cpu.l2cache.demandMshrMissRate::total     0.470268                       # mshr miss ratio for demand accesses (Ratio)
[...]
system.mem_ctrl.dram.bytesWritten::total        96320                       # Number of bytes written to this memory (Byte)
system.mem_ctrl.dram.numReads::cpu.inst          1313                       # Number of read requests responded to by this memory (Count)
system.mem_ctrl.dram.numReads::cpu.data          6025                       # Number of read requests responded to by this memory (Count)
system.mem_ctrl.dram.numReads::total             7338                       # Number of read requests responded to by this memory (Count)
system.mem_ctrl.dram.numWrites::writebacks         1505                       # Number of write requests responded to by this memory (Count)
system.mem_ctrl.dram.numWrites::total            1505                       # Number of write requests responded to by this memory (Count)
system.mem_ctrl.dram.bwRead::cpu.inst        15731271                       # Total read bandwidth from this memory ((Byte/Second))
system.mem_ctrl.dram.bwRead::cpu.data        72186527                       # Total read bandwidth from this memory ((Byte/Second))
system.mem_ctrl.dram.bwRead::total           87917799                       # Total read bandwidth from this memory ((Byte/Second))
system.mem_ctrl.dram.bwInstRead::cpu.inst     15731271                       # Instruction read bandwidth from this memory ((Byte/Second))
system.mem_ctrl.dram.bwInstRead::total       15731271                       # Instruction read bandwidth from this memory ((Byte/Second))
system.mem_ctrl.dram.bwWrite::writebacks     18031655                       # Write bandwidth from this memory ((Byte/Second))
system.mem_ctrl.dram.bwWrite::total          18031655                       # Write bandwidth from this memory ((Byte/Second))
system.mem_ctrl.dram.bwTotal::writebacks     18031655                       # Total bandwidth to/from this memory ((Byte/Second))
system.mem_ctrl.dram.bwTotal::cpu.inst       15731271                       # Total bandwidth to/from this memory ((Byte/Second))
system.mem_ctrl.dram.bwTotal::cpu.data       72186527                       # Total bandwidth to/from this memory ((Byte/Second))
system.mem_ctrl.dram.bwTotal::total         105949454                       # Total bandwidth to/from this memory ((Byte/Second))
system.mem_ctrl.dram.readBursts                  7330                       # Number of DRAM read bursts (Count)
system.mem_ctrl.dram.writeBursts                 1477                       # Number of DRAM write bursts (Count)
system.mem_ctrl.dram.perBankRdBursts::0           557                       # Per bank write bursts (Count)
system.mem_ctrl.dram.perBankRdBursts::1           553                       # Per bank write bursts (Count)
system.mem_ctrl.dram.perBankRdBursts::2           810                       # Per bank write bursts (Count)
system.mem_ctrl.dram.perBankRdBursts::3           483                       # Per bank write bursts (Count)
system.mem_ctrl.dram.perBankRdBursts::4           455                       # Per bank write bursts (Count)
system.mem_ctrl.dram.perBankRdBursts::5           377                       # Per bank write bursts (Count)
system.mem_ctrl.dram.perBankRdBursts::6           345                       # Per bank write bursts (Count)
system.mem_ctrl.dram.perBankRdBursts::7           318                       # Per bank write bursts (Count)
system.mem_ctrl.dram.perBankRdBursts::8           344                       # Per bank write bursts (Count)
system.mem_ctrl.dram.perBankRdBursts::9           444                       # Per bank write bursts (Count)
system.mem_ctrl.dram.perBankRdBursts::10          573                       # Per bank write bursts (Count)
system.mem_ctrl.dram.perBankRdBursts::11          429                       # Per bank write bursts (Count)
system.mem_ctrl.dram.perBankRdBursts::12          344                       # Per bank write bursts (Count)
system.mem_ctrl.dram.perBankRdBursts::13          387                       # Per bank write bursts (Count)
system.mem_ctrl.dram.perBankRdBursts::14          395                       # Per bank write bursts (Count)
system.mem_ctrl.dram.perBankRdBursts::15          516                       # Per bank write bursts (Count)
system.mem_ctrl.dram.perBankWrBursts::0           136                       # Per bank write bursts (Count)
system.mem_ctrl.dram.perBankWrBursts::1           144                       # Per bank write bursts (Count)
system.mem_ctrl.dram.perBankWrBursts::2           383                       # Per bank write bursts (Count)
system.mem_ctrl.dram.perBankWrBursts::3           132                       # Per bank write bursts (Count)
system.mem_ctrl.dram.perBankWrBursts::4            57                       # Per bank write bursts (Count)
system.mem_ctrl.dram.perBankWrBursts::5             0                       # Per bank write bursts (Count)
system.mem_ctrl.dram.perBankWrBursts::6            54                       # Per bank write bursts (Count)
system.mem_ctrl.dram.perBankWrBursts::7             9                       # Per bank write bursts (Count)
system.mem_ctrl.dram.perBankWrBursts::8            15                       # Per bank write bursts (Count)
system.mem_ctrl.dram.perBankWrBursts::9           105                       # Per bank write bursts (Count)
system.mem_ctrl.dram.perBankWrBursts::10          230                       # Per bank write bursts (Count)
system.mem_ctrl.dram.perBankWrBursts::11           73                       # Per bank write bursts (Count)
system.mem_ctrl.dram.perBankWrBursts::12           11                       # Per bank write bursts (Count)
system.mem_ctrl.dram.perBankWrBursts::13           24                       # Per bank write bursts (Count)
system.mem_ctrl.dram.perBankWrBursts::14           18                       # Per bank write bursts (Count)
system.mem_ctrl.dram.perBankWrBursts::15           86                       # Per bank write bursts (Count)
system.mem_ctrl.dram.totQLat                 78360750                       # Total ticks spent queuing (Tick)
system.mem_ctrl.dram.totBusLat               36650000                       # Total ticks spent in databus transfers (Tick)
system.mem_ctrl.dram.totMemAccLat           215798250                       # Total ticks spent from burst creation until serviced by the DRAM (Tick)
system.mem_ctrl.dram.avgQLat                 10690.42                       # Average queueing delay per DRAM burst ((Tick/Count))
system.mem_ctrl.dram.avgBusLat                5000.00                       # Average bus latency per DRAM burst ((Tick/Count))
system.mem_ctrl.dram.avgMemAccLat            29440.42                       # Average memory access latency per DRAM burst ((Tick/Count))
system.mem_ctrl.dram.readRowHits                 5997                       # Number of row buffer hits during reads (Count)
system.mem_ctrl.dram.writeRowHits                1243                       # Number of row buffer hits during writes (Count)
system.mem_ctrl.dram.readRowHitRate             81.81                       # Row buffer hit rate for reads (Ratio)
system.mem_ctrl.dram.writeRowHitRate            84.16                       # Row buffer hit rate for writes (Ratio)
system.mem_ctrl.dram.bytesPerActivate::samples         1566                       # Bytes accessed per row activation (Byte)
system.mem_ctrl.dram.bytesPerActivate::mean   359.887612                       # Bytes accessed per row activation (Byte)
system.mem_ctrl.dram.bytesPerActivate::gmean   242.202510                       # Bytes accessed per row activation (Byte)
system.mem_ctrl.dram.bytesPerActivate::stdev   314.158939                       # Bytes accessed per row activation (Byte)
system.mem_ctrl.dram.bytesPerActivate::0-127          328     20.95%     20.95% # Bytes accessed per row activation (Byte)
system.mem_ctrl.dram.bytesPerActivate::128-255          485     30.97%     51.92% # Bytes accessed per row activation (Byte)
system.mem_ctrl.dram.bytesPerActivate::256-383          127      8.11%     60.03% # Bytes accessed per row activation (Byte)
system.mem_ctrl.dram.bytesPerActivate::384-511          227     14.50%     74.52% # Bytes accessed per row activation (Byte)
system.mem_ctrl.dram.bytesPerActivate::512-639           95      6.07%     80.59% # Bytes accessed per row activation (Byte)
system.mem_ctrl.dram.bytesPerActivate::640-767           41      2.62%     83.21% # Bytes accessed per row activation (Byte)
system.mem_ctrl.dram.bytesPerActivate::768-895           48      3.07%     86.27% # Bytes accessed per row activation (Byte)
system.mem_ctrl.dram.bytesPerActivate::896-1023           40      2.55%     88.83% # Bytes accessed per row activation (Byte)
system.mem_ctrl.dram.bytesPerActivate::1024-1151          175     11.17%    100.00% # Bytes accessed per row activation (Byte)
system.mem_ctrl.dram.bytesPerActivate::total         1566                       # Bytes accessed per row activation (Byte)
system.mem_ctrl.dram.bytesRead                 469120                       # Total bytes read (Byte)
system.mem_ctrl.dram.bytesWritten               94528                       # Total bytes written (Byte)
system.mem_ctrl.dram.avgRdBW                87.821949                       # Average DRAM read bandwidth in MiBytes/s ((Byte/Second))
system.mem_ctrl.dram.avgWrBW                17.696183                       # Average DRAM write bandwidth in MiBytes/s ((Byte/Second))
system.mem_ctrl.dram.peakBW                  12800.00                       # Theoretical peak bandwidth in MiByte/s ((Byte/Second))
system.mem_ctrl.dram.busUtil                     0.82                       # Data bus utilization in percentage (Ratio)
system.mem_ctrl.dram.busUtilRead                 0.69                       # Data bus utilization in percentage for reads (Ratio)
system.mem_ctrl.dram.busUtilWrite                0.14                       # Data bus utilization in percentage for writes (Ratio)
system.mem_ctrl.dram.pageHitRate                82.21                       # Row buffer hit rate, read and write combined (Ratio)
system.mem_ctrl.dram.power_state.pwrStateResidencyTicks::UNDEFINED   5341717000                       # Cumulative time (in ticks) in various power states (Tick)
system.mem_ctrl.dram.rank0.actEnergy          6226080                       # Energy for activate commands per rank (pJ) (Joule)
system.mem_ctrl.dram.rank0.preEnergy          3305445                       # Energy for precharge commands per rank (pJ) (Joule)
system.mem_ctrl.dram.rank0.readEnergy        27831720                       # Energy for read commands per rank (pJ) (Joule)
system.mem_ctrl.dram.rank0.writeEnergy        4776300                       # Energy for write commands per rank (pJ) (Joule)
system.mem_ctrl.dram.rank0.refreshEnergy 421643040.000000                       # Energy for refresh commands per rank (pJ) (Joule)
system.mem_ctrl.dram.rank0.actBackEnergy   1015370070                       # Energy for active background per rank (pJ) (Joule)
system.mem_ctrl.dram.rank0.preBackEnergy   1196171040                       # Energy for precharge background per rank (pJ) (Joule)
system.mem_ctrl.dram.rank0.actPowerDownEnergy            0                       # Energy for active power-down per rank (pJ) (Joule)
system.mem_ctrl.dram.rank0.prePowerDownEnergy            0                       # Energy for precharge power-down per rank (pJ) (Joule)
system.mem_ctrl.dram.rank0.selfRefreshEnergy            0                       # Energy for self refresh per rank (pJ) (Joule)
system.mem_ctrl.dram.rank0.totalEnergy     2675323695                       # Total energy per rank (pJ) (Joule)
system.mem_ctrl.dram.rank0.averagePower    500.835910                       # Core power per rank (mW) (Watt)
system.mem_ctrl.dram.rank0.totalIdleTime            0                       # Total Idle time Per DRAM Rank (Tick)
system.mem_ctrl.dram.rank0.pwrStateTime::IDLE   3099094750                       # Time in different power states (Tick)
system.mem_ctrl.dram.rank0.pwrStateTime::REF    178360000                       # Time in different power states (Tick)
system.mem_ctrl.dram.rank0.pwrStateTime::SREF            0                       # Time in different power states (Tick)
system.mem_ctrl.dram.rank0.pwrStateTime::PRE_PDN            0                       # Time in different power states (Tick)
system.mem_ctrl.dram.rank0.pwrStateTime::ACT   2064262250                       # Time in different power states (Tick)
system.mem_ctrl.dram.rank0.pwrStateTime::ACT_PDN            0                       # Time in different power states (Tick)
system.mem_ctrl.dram.rank1.actEnergy          4962300                       # Energy for activate commands per rank (pJ) (Joule)
system.mem_ctrl.dram.rank1.preEnergy          2637525                       # Energy for precharge commands per rank (pJ) (Joule)
system.mem_ctrl.dram.rank1.readEnergy        24504480                       # Energy for read commands per rank (pJ) (Joule)
system.mem_ctrl.dram.rank1.writeEnergy        2933640                       # Energy for write commands per rank (pJ) (Joule)
system.mem_ctrl.dram.rank1.refreshEnergy 421643040.000000                       # Energy for refresh commands per rank (pJ) (Joule)
system.mem_ctrl.dram.rank1.actBackEnergy    830401650                       # Energy for active background per rank (pJ) (Joule)
system.mem_ctrl.dram.rank1.preBackEnergy   1351933920                       # Energy for precharge background per rank (pJ) (Joule)
system.mem_ctrl.dram.rank1.actPowerDownEnergy            0                       # Energy for active power-down per rank (pJ) (Joule)
system.mem_ctrl.dram.rank1.prePowerDownEnergy            0                       # Energy for precharge power-down per rank (pJ) (Joule)
system.mem_ctrl.dram.rank1.selfRefreshEnergy            0                       # Energy for self refresh per rank (pJ) (Joule)
system.mem_ctrl.dram.rank1.totalEnergy     2639016555                       # Total energy per rank (pJ) (Joule)
system.mem_ctrl.dram.rank1.averagePower    494.039006                       # Core power per rank (mW) (Watt)
system.mem_ctrl.dram.rank1.totalIdleTime            0                       # Total Idle time Per DRAM Rank (Tick)
system.mem_ctrl.dram.rank1.pwrStateTime::IDLE   3506653750                       # Time in different power states (Tick)
system.mem_ctrl.dram.rank1.pwrStateTime::REF    178360000                       # Time in different power states (Tick)
system.mem_ctrl.dram.rank1.pwrStateTime::SREF            0                       # Time in different power states (Tick)
system.mem_ctrl.dram.rank1.pwrStateTime::PRE_PDN            0                       # Time in different power states (Tick)
system.mem_ctrl.dram.rank1.pwrStateTime::ACT   1656703250                       # Time in different power states (Tick)
system.mem_ctrl.dram.rank1.pwrStateTime::ACT_PDN            0                       # Time in different power states (Tick)
system.mem_ctrl.power_state.pwrStateResidencyTicks::UNDEFINED   5341717000                       # Cumulative time (in ticks) in various power states (Tick)
system.membus.transDist::ReadResp                5683                       # Transaction distribution (Count)
system.membus.transDist::WritebackDirty          1505                       # Transaction distribution (Count)
system.membus.transDist::CleanEvict              1267                       # Transaction distribution (Count)
system.membus.transDist::ReadExReq               1655                       # Transaction distribution (Count)
system.membus.transDist::ReadExResp              1655                       # Transaction distribution (Count)
system.membus.transDist::ReadSharedReq           5683                       # Transaction distribution (Count)
system.membus.pktCount_system.cpu.l2cache.mem_side_port::system.mem_ctrl.port        17448                       # Packet count per connected requestor and responder (Count)
system.membus.pktCount_system.cpu.l2cache.mem_side_port::total        17448                       # Packet count per connected requestor and responder (Count)
system.membus.pktCount::total                   17448                       # Packet count per connected requestor and responder (Count)
system.membus.pktSize_system.cpu.l2cache.mem_side_port::system.mem_ctrl.port       565952                       # Cumulative packet size per connected requestor and responder (Byte)
system.membus.pktSize_system.cpu.l2cache.mem_side_port::total       565952                       # Cumulative packet size per connected requestor and responder (Byte)
system.membus.pktSize::total                   565952                       # Cumulative packet size per connected requestor and responder (Byte)
system.membus.snoops                                0                       # Total snoops (Count)
system.membus.snoopTraffic                          0                       # Total snoop traffic (Byte)
system.membus.snoopFanout::samples               7338                       # Request fanout histogram (Count)
system.membus.snoopFanout::mean                     0                       # Request fanout histogram (Count)
system.membus.snoopFanout::stdev                    0                       # Request fanout histogram (Count)
system.membus.snoopFanout::underflows               0      0.00%      0.00% # Request fanout histogram (Count)
system.membus.snoopFanout::0                     7338    100.00%    100.00% # Request fanout histogram (Count)
system.membus.snoopFanout::1                        0      0.00%    100.00% # Request fanout histogram (Count)
system.membus.snoopFanout::overflows                0      0.00%    100.00% # Request fanout histogram (Count)
system.membus.snoopFanout::min_value                0                       # Request fanout histogram (Count)
system.membus.snoopFanout::max_value                0                       # Request fanout histogram (Count)
system.membus.snoopFanout::total                 7338                       # Request fanout histogram (Count)
system.membus.power_state.pwrStateResidencyTicks::UNDEFINED   5341717000                       # Cumulative time (in ticks) in various power states (Tick)
system.membus.reqLayer2.occupancy             8065000                       # Layer occupancy (ticks) (Tick)
system.membus.reqLayer2.utilization               0.0                       # Layer utilization (Ratio)
system.membus.respLayer0.occupancy           19651750                       # Layer occupancy (ticks) (Tick)
system.membus.respLayer0.utilization              0.0                       # Layer utilization (Ratio)
system.membus.snoop_filter.totRequests          10110                       # Total number of requests made to the snoop filter. (Count)
system.membus.snoop_filter.hitSingleRequests         2772                       # Number of requests hitting in the snoop filter with a single holder of the requested data. (Count)
system.membus.snoop_filter.hitMultiRequests            0                       # Number of requests hitting in the snoop filter with multiple (>1) holders of the requested data. (Count)
system.membus.snoop_filter.totSnoops                0                       # Total number of snoops made to the snoop filter. (Count)
system.membus.snoop_filter.hitSingleSnoops            0                       # Number of snoops hitting in the snoop filter with a single holder of the requested data. (Count)
system.membus.snoop_filter.hitMultiSnoops            0                       # Number of snoops hitting in the snoop filter with multiple (>1) holders of the requested data. (Count)
system.workload.inst.arm                            0                       # number of arm instructions executed (Count)
system.workload.inst.quiesce                        0                       # number of quiesce instructions executed (Count)

---------- End Simulation Statistics   ----------
