
---------- Begin Simulation Statistics ----------
simSeconds                                   0.005315                       # Number of seconds simulated (Second)
simTicks                                   5315346500                       # Number of ticks simulated (Tick)
finalTick                                  5315346500                       # Number of ticks from beginning of simulation (restored from checkpoints and never reset) (Tick)
simFreq                                  1000000000000                       # The number of ticks per simulated second ((Tick/Second))
hostSeconds                                    136.62                       # Real time elapsed on the host (Second)
hostTickRate                                 38907273                       # The number of ticks simulated per host second (ticks/s) ((Tick/Second))
hostMemory                                    1199780                       # Number of bytes of host memory used (Byte)
simInsts                                     19928450                       # Number of instructions simulated (Count)
simOps                                       35336477                       # Number of ops (including micro ops) simulated (Count)
hostInstRate                                   145872                       # Simulator instruction rate (inst/s) ((Count/Second))
hostOpRate                                     258656                       # Simulator op (including micro ops) rate (op/s) ((Count/Second))
system.clk_domain.clock                           500                       # Clock period in ticks (Tick)
system.clk_domain.voltage_domain.voltage            1                       # Voltage in Volts (Volt)
system.cpu.numCycles                         10630694                       # Number of cpu cycles simulated (Cycle)
system.cpu.numWorkItemsStarted                      0                       # Number of work items this cpu started (Count)
system.cpu.numWorkItemsCompleted                    0                       # Number of work items this cpu completed (Count)
system.cpu.instsAdded                        35859555                       # Number of instructions added to the IQ (excludes non-spec) (Count)
system.cpu.nonSpecInstsAdded                       35                       # Number of non-speculative instructions added to the IQ (Count)
system.cpu.instsIssued                       35718590                       # Number of instructions issued (Count)
system.cpu.squashedInstsIssued                   1280                       # Number of squashed instructions issued (Count)
system.cpu.squashedInstsExamined               523107                       # Number of squashed instructions iterated over during squash; mainly for profiling (Count)
system.cpu.squashedOperandsExamined            605973                       # Number of squashed operands that are examined and possibly removed from graph (Count)
system.cpu.squashedNonSpecRemoved                  17                       # Number of squashed non-spec instructions that were removed (Count)
system.cpu.numIssuedDist::samples            10535626                       # Number of insts issued each cycle (Count)
system.cpu.numIssuedDist::mean               3.390267                       # Number of insts issued each cycle (Count)
system.cpu.numIssuedDist::stdev              1.922841                       # Number of insts issued each cycle (Count)
system.cpu.numIssuedDist::underflows                0      0.00%      0.00% # Number of insts issued each cycle (Count)
system.cpu.numIssuedDist::0                    684212      6.49%      6.49% # Number of insts issued each cycle (Count)
system.cpu.numIssuedDist::1                   1226105     11.64%     18.13% # Number of insts issued each cycle (Count)
system.cpu.numIssuedDist::2                    915836      8.69%     26.82% # Number of insts issued each cycle (Count)
system.cpu.numIssuedDist::3                   3407279     32.34%     59.17% # Number of insts issued each cycle (Count)
system.cpu.numIssuedDist::4                   1729785     16.42%     75.58% # Number of insts issued each cycle (Count)
system.cpu.numIssuedDist::5                   1101012     10.45%     86.03% # Number of insts issued each cycle (Count)
system.cpu.numIssuedDist::6                    734451      6.97%     93.01% # Number of insts issued each cycle (Count)
system.cpu.numIssuedDist::7                    287498      2.73%     95.73% # Number of insts issued each cycle (Count)
system.cpu.numIssuedDist::8                    449448      4.27%    100.00% # Number of insts issued each cycle (Count)
system.cpu.numIssuedDist::overflows                 0      0.00%    100.00% # Number of insts issued each cycle (Count)
system.cpu.numIssuedDist::min_value                 0                       # Number of insts issued each cycle (Count)
system.cpu.numIssuedDist::max_value                 8                       # Number of insts issued each cycle (Count)
system.cpu.numIssuedDist::total              10535626                       # Number of insts issued each cycle (Count)
system.cpu.statFuBusy::No_OpClass                   0      0.00%      0.00% # attempts to use FU when none available (Count)
system.cpu.statFuBusy::IntAlu                  575748     95.22%     95.22% # attempts to use FU when none available (Count)
system.cpu.statFuBusy::IntMult                      0      0.00%     95.22% # attempts to use FU when none available (Count)
system.cpu.statFuBusy::IntDiv                       0      0.00%     95.22% # attempts to use FU when none available (Count)
system.cpu.statFuBusy::FloatAdd                     0      0.00%     95.22% # attempts to use FU when none available (Count)
system.cpu.statFuBusy::FloatCmp                     0      0.00%     95.22% # attempts to use FU when none available (Count)
system.cpu.statFuBusy::FloatCvt                     0      0.00%     95.22% # attempts to use FU when none available (Count)
system.cpu.statFuBusy::FloatMult                    0      0.00%     95.22% # attempts to use FU when none available (Count)
system.cpu.statFuBusy::FloatMultAcc                 0      0.00%     95.22% # attempts to use FU when none available (Count)
system.cpu.statFuBusy::FloatDiv                     0      0.00%     95.22% # attempts to use FU when none available (Count)
system.cpu.statFuBusy::FloatMisc                    0      0.00%     95.22% # attempts to use FU when none available (Count)
system.cpu.statFuBusy::FloatSqrt                    0      0.00%     95.22% # attempts to use FU when none available (Count)
system.cpu.statFuBusy::SimdAdd                      0      0.00%     95.22% # attempts to use FU when none available (Count)
system.cpu.statFuBusy::SimdAddAcc                   0      0.00%     95.22% # attempts to use FU when none available (Count)
system.cpu.statFuBusy::SimdAlu                   1018      0.17%     95.39% # attempts to use FU when none available (Count)
system.cpu.statFuBusy::SimdCmp                      0      0.00%     95.39% # attempts to use FU when none available (Count)
system.cpu.statFuBusy::SimdCvt                     27      0.00%     95.39% # attempts to use FU when none available (Count)
system.cpu.statFuBusy::SimdMisc                     5      0.00%     95.40% # attempts to use FU when none available (Count)
system.cpu.statFuBusy::SimdMult                     0      0.00%     95.40% # attempts to use FU when none available (Count)
system.cpu.statFuBusy::SimdMultAcc                  0      0.00%     95.40% # attempts to use FU when none available (Count)
system.cpu.statFuBusy::SimdShift                    0      0.00%     95.40% # attempts to use FU when none available (Count)
system.cpu.statFuBusy::SimdShiftAcc                 0      0.00%     95.40% # attempts to use FU when none available (Count)
system.cpu.statFuBusy::SimdDiv                      0      0.00%     95.40% # attempts to use FU when none available (Count)
system.cpu.statFuBusy::SimdSqrt                     0      0.00%     95.40% # attempts to use FU when none available (Count)
system.cpu.statFuBusy::SimdFloatAdd                 0      0.00%     95.40% # attempts to use FU when none available (Count)
system.cpu.statFuBusy::SimdFloatAlu                 0      0.00%     95.40% # attempts to use FU when none available (Count)
system.cpu.statFuBusy::SimdFloatCmp                 0      0.00%     95.40% # attempts to use FU when none available (Count)
system.cpu.statFuBusy::SimdFloatCvt                 0      0.00%     95.40% # attempts to use FU when none available (Count)
system.cpu.statFuBusy::SimdFloatDiv                 0      0.00%     95.40% # attempts to use FU when none available (Count)
system.cpu.statFuBusy::SimdFloatMisc                0      0.00%     95.40% # attempts to use FU when none available (Count)
system.cpu.statFuBusy::SimdFloatMult                0      0.00%     95.40% # attempts to use FU when none available (Count)
system.cpu.statFuBusy::SimdFloatMultAcc             0      0.00%     95.40% # attempts to use FU when none available (Count)
system.cpu.statFuBusy::SimdFloatSqrt                0      0.00%     95.40% # attempts to use FU when none available (Count)
system.cpu.statFuBusy::SimdReduceAdd                0      0.00%     95.40% # attempts to use FU when none available (Count)
system.cpu.statFuBusy::SimdReduceAlu                0      0.00%     95.40% # attempts to use FU when none available (Count)
system.cpu.statFuBusy::SimdReduceCmp                0      0.00%     95.40% # attempts to use FU when none available (Count)
system.cpu.statFuBusy::SimdFloatReduceAdd            0      0.00%     95.40% # attempts to use FU when none available (Count)
system.cpu.statFuBusy::SimdFloatReduceCmp            0      0.00%     95.40% # attempts to use FU when none available (Count)
system.cpu.statFuBusy::SimdAes                      0      0.00%     95.40% # attempts to use FU when none available (Count)
system.cpu.statFuBusy::SimdAesMix                   0      0.00%     95.40% # attempts to use FU when none available (Count)
system.cpu.statFuBusy::SimdSha1Hash                 0      0.00%     95.40% # attempts to use FU when none available (Count)
system.cpu.statFuBusy::SimdSha1Hash2                0      0.00%     95.40% # attempts to use FU when none available (Count)
system.cpu.statFuBusy::SimdSha256Hash               0      0.00%     95.40% # attempts to use FU when none available (Count)
system.cpu.statFuBusy::SimdSha256Hash2              0      0.00%     95.40% # attempts to use FU when none available (Count)
system.cpu.statFuBusy::SimdShaSigma2                0      0.00%     95.40% # attempts to use FU when none available (Count)
system.cpu.statFuBusy::SimdShaSigma3                0      0.00%     95.40% # attempts to use FU when none available (Count)
system.cpu.statFuBusy::SimdPredAlu                  0      0.00%     95.40% # attempts to use FU when none available (Count)
system.cpu.statFuBusy::MemRead                  18582      3.07%     98.47% # attempts to use FU when none available (Count)
system.cpu.statFuBusy::MemWrite                  2420      0.40%     98.87% # attempts to use FU when none available (Count)
system.cpu.statFuBusy::FloatMemRead              1974      0.33%     99.20% # attempts to use FU when none available (Count)
system.cpu.statFuBusy::FloatMemWrite             4863      0.80%    100.00% # attempts to use FU when none available (Count)
system.cpu.statFuBusy::IprAccess                    0      0.00%    100.00% # attempts to use FU when none available (Count)
system.cpu.statFuBusy::InstPrefetch                 0      0.00%    100.00% # attempts to use FU when none available (Count)
system.cpu.statIssuedInstType_0::No_OpClass       593912      1.66%      1.66% # Number of instructions issued per FU type, per thread (Count)
system.cpu.statIssuedInstType_0::IntAlu      20323050     56.90%     58.56% # Number of instructions issued per FU type, per thread (Count)
system.cpu.statIssuedInstType_0::IntMult       517542      1.45%     60.01% # Number of instructions issued per FU type, per thread (Count)
system.cpu.statIssuedInstType_0::IntDiv         54226      0.15%     60.16% # Number of instructions issued per FU type, per thread (Count)
system.cpu.statIssuedInstType_0::FloatAdd      1517319      4.25%     64.41% # Number of instructions issued per FU type, per thread (Count)
system.cpu.statIssuedInstType_0::FloatCmp            0      0.00%     64.41% # Number of instructions issued per FU type, per thread (Count)
system.cpu.statIssuedInstType_0::FloatCvt           32      0.00%     64.41% # Number of instructions issued per FU type, per thread (Count)
system.cpu.statIssuedInstType_0::FloatMult            0      0.00%     64.41% # Number of instructions issued per FU type, per thread (Count)
system.cpu.statIssuedInstType_0::FloatMultAcc            0      0.00%     64.41% # Number of instructions issued per FU type, per thread (Count)
system.cpu.statIssuedInstType_0::FloatDiv            0      0.00%     64.41% # Number of instructions issued per FU type, per thread (Count)
system.cpu.statIssuedInstType_0::FloatMisc            0      0.00%     64.41% # Number of instructions issued per FU type, per thread (Count)
system.cpu.statIssuedInstType_0::FloatSqrt            0      0.00%     64.41% # Number of instructions issued per FU type, per thread (Count)
system.cpu.statIssuedInstType_0::SimdAdd          459      0.00%     64.41% # Number of instructions issued per FU type, per thread (Count)
system.cpu.statIssuedInstType_0::SimdAddAcc            0      0.00%     64.41% # Number of instructions issued per FU type, per thread (Count)
system.cpu.statIssuedInstType_0::SimdAlu        19182      0.05%     64.46% # Number of instructions issued per FU type, per thread (Count)
system.cpu.statIssuedInstType_0::SimdCmp            8      0.00%     64.46% # Number of instructions issued per FU type, per thread (Count)
system.cpu.statIssuedInstType_0::SimdCvt        11122      0.03%     64.50% # Number of instructions issued per FU type, per thread (Count)
system.cpu.statIssuedInstType_0::SimdMisc        24990      0.07%     64.57% # Number of instructions issued per FU type, per thread (Count)
system.cpu.statIssuedInstType_0::SimdMult            0      0.00%     64.57% # Number of instructions issued per FU type, per thread (Count)
system.cpu.statIssuedInstType_0::SimdMultAcc            0      0.00%     64.57% # Number of instructions issued per FU type, per thread (Count)
system.cpu.statIssuedInstType_0::SimdShift          334      0.00%     64.57% # Number of instructions issued per FU type, per thread (Count)
system.cpu.statIssuedInstType_0::SimdShiftAcc            0      0.00%     64.57% # Number of instructions issued per FU type, per thread (Count)
system.cpu.statIssuedInstType_0::SimdDiv            0      0.00%     64.57% # Number of instructions issued per FU type, per thread (Count)
system.cpu.statIssuedInstType_0::SimdSqrt            0      0.00%     64.57% # Number of instructions issued per FU type, per thread (Count)
system.cpu.statIssuedInstType_0::SimdFloatAdd            0      0.00%     64.57% # Number of instructions issued per FU type, per thread (Count)
system.cpu.statIssuedInstType_0::SimdFloatAlu            0      0.00%     64.57% # Number of instructions issued per FU type, per thread (Count)
system.cpu.statIssuedInstType_0::SimdFloatCmp            0      0.00%     64.57% # Number of instructions issued per FU type, per thread (Count)
system.cpu.statIssuedInstType_0::SimdFloatCvt       508515      1.42%     65.99% # Number of instructions issued per FU type, per thread (Count)
system.cpu.statIssuedInstType_0::SimdFloatDiv            0      0.00%     65.99% # Number of instructions issued per FU type, per thread (Count)
system.cpu.statIssuedInstType_0::SimdFloatMisc            0      0.00%     65.99% # Number of instructions issued per FU type, per thread (Count)
system.cpu.statIssuedInstType_0::SimdFloatMult            0      0.00%     65.99% # Number of instructions issued per FU type, per thread (Count)
system.cpu.statIssuedInstType_0::SimdFloatMultAcc            0      0.00%     65.99% # Number of instructions issued per FU type, per thread (Count)
system.cpu.statIssuedInstType_0::SimdFloatSqrt            0      0.00%     65.99% # Number of instructions issued per FU type, per thread (Count)
system.cpu.statIssuedInstType_0::SimdReduceAdd            0      0.00%     65.99% # Number of instructions issued per FU type, per thread (Count)
system.cpu.statIssuedInstType_0::SimdReduceAlu            0      0.00%     65.99% # Number of instructions issued per FU type, per thread (Count)
system.cpu.statIssuedInstType_0::SimdReduceCmp            0      0.00%     65.99% # Number of instructions issued per FU type, per thread (Count)
system.cpu.statIssuedInstType_0::SimdFloatReduceAdd            0      0.00%     65.99% # Number of instructions issued per FU type, per thread (Count)
system.cpu.statIssuedInstType_0::SimdFloatReduceCmp            0      0.00%     65.99% # Number of instructions issued per FU type, per thread (Count)
system.cpu.statIssuedInstType_0::SimdAes            0      0.00%     65.99% # Number of instructions issued per FU type, per thread (Count)
system.cpu.statIssuedInstType_0::SimdAesMix            0      0.00%     65.99% # Number of instructions issued per FU type, per thread (Count)
system.cpu.statIssuedInstType_0::SimdSha1Hash            0      0.00%     65.99% # Number of instructions issued per FU type, per thread (Count)
system.cpu.statIssuedInstType_0::SimdSha1Hash2            0      0.00%     65.99% # Number of instructions issued per FU type, per thread (Count)
system.cpu.statIssuedInstType_0::SimdSha256Hash            0      0.00%     65.99% # Number of instructions issued per FU type, per thread (Count)
system.cpu.statIssuedInstType_0::SimdSha256Hash2            0      0.00%     65.99% # Number of instructions issued per FU type, per thread (Count)
system.cpu.statIssuedInstType_0::SimdShaSigma2            0      0.00%     65.99% # Number of instructions issued per FU type, per thread (Count)
system.cpu.statIssuedInstType_0::SimdShaSigma3            0      0.00%     65.99% # Number of instructions issued per FU type, per thread (Count)
system.cpu.statIssuedInstType_0::SimdPredAlu            0      0.00%     65.99% # Number of instructions issued per FU type, per thread (Count)
system.cpu.statIssuedInstType_0::MemRead      5993589     16.78%     82.77% # Number of instructions issued per FU type, per thread (Count)
system.cpu.statIssuedInstType_0::MemWrite      3074703      8.61%     91.38% # Number of instructions issued per FU type, per thread (Count)
system.cpu.statIssuedInstType_0::FloatMemRead      2047150      5.73%     97.11% # Number of instructions issued per FU type, per thread (Count)
system.cpu.statIssuedInstType_0::FloatMemWrite      1032457      2.89%    100.00% # Number of instructions issued per FU type, per thread (Count)
system.cpu.statIssuedInstType_0::IprAccess            0      0.00%    100.00% # Number of instructions issued per FU type, per thread (Count)
system.cpu.statIssuedInstType_0::InstPrefetch            0      0.00%    100.00% # Number of instructions issued per FU type, per thread (Count)
system.cpu.statIssuedInstType_0::total       35718590                       # Number of instructions issued per FU type, per thread (Count)
system.cpu.issueRate                         3.359949                       # Inst issue rate ((Count/Cycle))
system.cpu.fuBusy                              604637                       # FU busy when requested (Count)
system.cpu.fuBusyRate                        0.016928                       # FU busy rate (busy events/executed inst) ((Count/Count))
system.cpu.intInstQueueReads                 72231027                       # Number of integer instruction queue reads (Count)
system.cpu.intInstQueueWrites                31197047                       # Number of integer instruction queue writes (Count)
system.cpu.intInstQueueWakeupAccesses        30500785                       # Number of integer instruction queue wakeup accesses (Count)
system.cpu.fpInstQueueReads                  10347696                       # Number of floating instruction queue reads (Count)
system.cpu.fpInstQueueWrites                  5186154                       # Number of floating instruction queue writes (Count)
system.cpu.fpInstQueueWakeupAccesses          5160275                       # Number of floating instruction queue wakeup accesses (Count)
system.cpu.vecInstQueueReads                        0                       # Number of vector instruction queue reads (Count)
system.cpu.vecInstQueueWrites                       0                       # Number of vector instruction queue writes (Count)
system.cpu.vecInstQueueWakeupAccesses               0                       # Number of vector instruction queue wakeup accesses (Count)
system.cpu.intAluAccesses                    30551537                       # Number of integer alu accesses (Count)
system.cpu.fpAluAccesses                      5177778                       # Number of floating point alu accesses (Count)
system.cpu.vecAluAccesses                           0                       # Number of vector alu accesses (Count)
system.cpu.numInsts                          35686032                       # Number of executed instructions (Count)
system.cpu.numLoadInsts                       8036248                       # Number of load instructions executed (Count)
system.cpu.numSquashedInsts                     32558                       # Number of squashed instructions skipped in execute (Count)
system.cpu.numSwp                                   0                       # Number of swp insts executed (Count)
system.cpu.numNop                                   0                       # Number of nop insts executed (Count)
system.cpu.numRefs                           12139490                       # Number of memory reference insts executed (Count)
system.cpu.numBranches                        3313042                       # Number of branches executed (Count)
system.cpu.numStoreInsts                      4103242                       # Number of stores executed (Count)
system.cpu.numRate                           3.356886                       # Inst execution rate ((Count/Cycle))
system.cpu.timesIdled                             909                       # Number of times that the entire CPU went into an idle state and unscheduled itself (Count)
system.cpu.idleCycles                           95068                       # Total number of cycles that the CPU has spent unscheduled due to idling (Cycle)
system.cpu.committedInsts                    19928450                       # Number of Instructions Simulated (Count)
system.cpu.committedOps                      35336477                       # Number of Ops (including micro ops) Simulated (Count)
system.cpu.cpi                               0.533443                       # CPI: Cycles Per Instruction ((Cycle/Count))
system.cpu.totalCpi                          0.533443                       # CPI: Total CPI of All Threads ((Cycle/Count))
system.cpu.ipc                               1.874614                       # IPC: Instructions Per Cycle ((Count/Cycle))
system.cpu.totalIpc                          1.874614                       # IPC: Total IPC of All Threads ((Count/Cycle))
system.cpu.intRegfileReads                   55757873                       # Number of integer regfile reads (Count)
system.cpu.intRegfileWrites                  24157468                       # Number of integer regfile writes (Count)
system.cpu.fpRegfileReads                     2180903                       # Number of floating regfile reads (Count)
system.cpu.fpRegfileWrites                    3610932                       # Number of floating regfile writes (Count)
system.cpu.ccRegfileReads                    10403932                       # number of cc regfile reads (Count)
system.cpu.ccRegfileWrites                    5890174                       # number of cc regfile writes (Count)
system.cpu.miscRegfileReads                  18229803                       # number of misc regfile reads (Count)
system.cpu.miscRegfileWrites                       18                       # number of misc regfile writes (Count)
system.cpu.MemDepUnit__0.insertedLoads        8057133                       # Number of loads inserted to the mem dependence unit. (Count)
system.cpu.MemDepUnit__0.insertedStores       4112916                       # Number of stores inserted to the mem dependence unit. (Count)
system.cpu.MemDepUnit__0.conflictingLoads      2573505                       # Number of conflicting loads. (Count)
system.cpu.MemDepUnit__0.conflictingStores       586115                       # Number of conflicting stores. (Count)
system.cpu.MemDepUnit__1.insertedLoads              0                       # Number of loads inserted to the mem dependence unit. (Count)
system.cpu.MemDepUnit__1.insertedStores             0                       # Number of stores inserted to the mem dependence unit. (Count)
system.cpu.MemDepUnit__1.conflictingLoads            0                       # Number of conflicting loads. (Count)
system.cpu.MemDepUnit__1.conflictingStores            0                       # Number of conflicting stores. (Count)
system.cpu.MemDepUnit__2.insertedLoads              0                       # Number of loads inserted to the mem dependence unit. (Count)
system.cpu.MemDepUnit__2.insertedStores             0                       # Number of stores inserted to the mem dependence unit. (Count)
system.cpu.MemDepUnit__2.conflictingLoads            0                       # Number of conflicting loads. (Count)
system.cpu.MemDepUnit__2.conflictingStores            0                       # Number of conflicting stores. (Count)
system.cpu.MemDepUnit__3.insertedLoads              0                       # Number of loads inserted to the mem dependence unit. (Count)
system.cpu.MemDepUnit__3.insertedStores             0                       # Number of stores inserted to the mem dependence unit. (Count)
system.cpu.MemDepUnit__3.conflictingLoads            0                       # Number of conflicting loads. (Count)
system.cpu.MemDepUnit__3.conflictingStores            0                       # Number of conflicting stores. (Count)
system.cpu.branchPred.lookups                 3380735                       # Number of BP lookups (Count)
system.cpu.branchPred.condPredicted           1645629                       # Number of conditional branches predicted (Count)
system.cpu.branchPred.condIncorrect             14880                       # Number of conditional branches incorrect (Count)
system.cpu.branchPred.BTBLookups              1381785                       # Number of BTB lookups (Count)
system.cpu.branchPred.BTBHits                 1377613                       # Number of BTB hits (Count)
system.cpu.branchPred.BTBHitRatio            0.996981                       # BTB Hit Ratio (Ratio)
system.cpu.branchPred.RASUsed                  572629                       # Number of times the RAS was used to get a target. (Count)
system.cpu.branchPred.RASIncorrect                991                       # Number of incorrect RAS predictions. (Count)
system.cpu.branchPred.indirectLookups          531150                       # Number of indirect predictor lookups. (Count)
system.cpu.branchPred.indirectHits             529734                       # Number of indirect target hits. (Count)
system.cpu.branchPred.indirectMisses             1416                       # Number of indirect misses. (Count)
system.cpu.branchPred.indirectMispredicted          308                       # Number of mispredicted indirect branches. (Count)
system.cpu.commit.commitSquashedInsts          490842                       # The number of squashed insts skipped by commit (Count)
system.cpu.commit.commitNonSpecStalls              18                       # The number of times commit has been forced to stall to communicate backwards (Count)
system.cpu.commit.branchMispredicts             13530                       # The number of times a branch was mispredicted (Count)
system.cpu.commit.numCommittedDist::samples     10464584                       # Number of insts commited each cycle (Count)
system.cpu.commit.numCommittedDist::mean     3.376768                       # Number of insts commited each cycle (Count)
system.cpu.commit.numCommittedDist::stdev     3.111273                       # Number of insts commited each cycle (Count)
system.cpu.commit.numCommittedDist::underflows            0      0.00%      0.00% # Number of insts commited each cycle (Count)
system.cpu.commit.numCommittedDist::0         2740051     26.18%     26.18% # Number of insts commited each cycle (Count)
system.cpu.commit.numCommittedDist::1          804061      7.68%     33.87% # Number of insts commited each cycle (Count)
system.cpu.commit.numCommittedDist::2         1874836     17.92%     51.78% # Number of insts commited each cycle (Count)
system.cpu.commit.numCommittedDist::3         1258233     12.02%     63.81% # Number of insts commited each cycle (Count)
system.cpu.commit.numCommittedDist::4          604072      5.77%     69.58% # Number of insts commited each cycle (Count)
system.cpu.commit.numCommittedDist::5           97834      0.93%     70.51% # Number of insts commited each cycle (Count)
system.cpu.commit.numCommittedDist::6           65485      0.63%     71.14% # Number of insts commited each cycle (Count)
system.cpu.commit.numCommittedDist::7          450419      4.30%     75.44% # Number of insts commited each cycle (Count)
system.cpu.commit.numCommittedDist::8         2569593     24.56%    100.00% # Number of insts commited each cycle (Count)
system.cpu.commit.numCommittedDist::overflows            0      0.00%    100.00% # Number of insts commited each cycle (Count)
system.cpu.commit.numCommittedDist::min_value            0                       # Number of insts commited each cycle (Count)
system.cpu.commit.numCommittedDist::max_value            8                       # Number of insts commited each cycle (Count)
system.cpu.commit.numCommittedDist::total     10464584                       # Number of insts commited each cycle (Count)
system.cpu.commit.instsCommitted             19928450                       # Number of instructions committed (Count)
system.cpu.commit.opsCommitted               35336477                       # Number of ops (including micro ops) committed (Count)
system.cpu.commit.memRefs                    12069539                       # Number of memory references committed (Count)
system.cpu.commit.loads                       7978510                       # Number of loads committed (Count)
system.cpu.commit.amos                              0                       # Number of atomic instructions committed (Count)
system.cpu.commit.membars                           0                       # Number of memory barriers committed (Count)
system.cpu.commit.branches                    3283692                       # Number of branches committed (Count)
system.cpu.commit.vectorInstructions                0                       # Number of committed Vector instructions. (Count)
system.cpu.commit.floating                    5154398                       # Number of committed floating point instructions. (Count)
system.cpu.commit.integer                    32657360                       # Number of committed integer instructions. (Count)
system.cpu.commit.functionCalls                563369                       # Number of function calls committed. (Count)
system.cpu.commit.committedInstType_0::No_OpClass       589130      1.67%      1.67% # Class of committed instruction (Count)
system.cpu.commit.committedInstType_0::IntAlu     20030633     56.69%     58.35% # Class of committed instruction (Count)
system.cpu.commit.committedInstType_0::IntMult       516165      1.46%     59.81% # Class of committed instruction (Count)
system.cpu.commit.committedInstType_0::IntDiv        53994      0.15%     59.97% # Class of committed instruction (Count)
system.cpu.commit.committedInstType_0::FloatAdd      1513865      4.28%     64.25% # Class of committed instruction (Count)
system.cpu.commit.committedInstType_0::FloatCmp            0      0.00%     64.25% # Class of committed instruction (Count)
system.cpu.commit.committedInstType_0::FloatCvt           32      0.00%     64.25% # Class of committed instruction (Count)
system.cpu.commit.committedInstType_0::FloatMult            0      0.00%     64.25% # Class of committed instruction (Count)
system.cpu.commit.committedInstType_0::FloatMultAcc            0      0.00%     64.25% # Class of committed instruction (Count)
system.cpu.commit.committedInstType_0::FloatDiv            0      0.00%     64.25% # Class of committed instruction (Count)
system.cpu.commit.committedInstType_0::FloatMisc            0      0.00%     64.25% # Class of committed instruction (Count)
system.cpu.commit.committedInstType_0::FloatSqrt            0      0.00%     64.25% # Class of committed instruction (Count)
system.cpu.commit.committedInstType_0::SimdAdd          326      0.00%     64.25% # Class of committed instruction (Count)
system.cpu.commit.committedInstType_0::SimdAddAcc            0      0.00%     64.25% # Class of committed instruction (Count)
system.cpu.commit.committedInstType_0::SimdAlu        18662      0.05%     64.30% # Class of committed instruction (Count)
system.cpu.commit.committedInstType_0::SimdCmp            6      0.00%     64.30% # Class of committed instruction (Count)
system.cpu.commit.committedInstType_0::SimdCvt        10720      0.03%     64.33% # Class of committed instruction (Count)
system.cpu.commit.committedInstType_0::SimdMisc        24821      0.07%     64.40% # Class of committed instruction (Count)
system.cpu.commit.committedInstType_0::SimdMult            0      0.00%     64.40% # Class of committed instruction (Count)
system.cpu.commit.committedInstType_0::SimdMultAcc            0      0.00%     64.40% # Class of committed instruction (Count)
system.cpu.commit.committedInstType_0::SimdShift           90      0.00%     64.40% # Class of committed instruction (Count)
system.cpu.commit.committedInstType_0::SimdShiftAcc            0      0.00%     64.40% # Class of committed instruction (Count)
system.cpu.commit.committedInstType_0::SimdDiv            0      0.00%     64.40% # Class of committed instruction (Count)
system.cpu.commit.committedInstType_0::SimdSqrt            0      0.00%     64.40% # Class of committed instruction (Count)
system.cpu.commit.committedInstType_0::SimdFloatAdd            0      0.00%     64.40% # Class of committed instruction (Count)
system.cpu.commit.committedInstType_0::SimdFloatAlu            0      0.00%     64.40% # Class of committed instruction (Count)
system.cpu.commit.committedInstType_0::SimdFloatCmp            0      0.00%     64.40% # Class of committed instruction (Count)
system.cpu.commit.committedInstType_0::SimdFloatCvt       508494      1.44%     65.84% # Class of committed instruction (Count)
system.cpu.commit.committedInstType_0::SimdFloatDiv            0      0.00%     65.84% # Class of committed instruction (Count)
system.cpu.commit.committedInstType_0::SimdFloatMisc            0      0.00%     65.84% # Class of committed instruction (Count)
system.cpu.commit.committedInstType_0::SimdFloatMult            0      0.00%     65.84% # Class of committed instruction (Count)
system.cpu.commit.committedInstType_0::SimdFloatMultAcc            0      0.00%     65.84% # Class of committed instruction (Count)
system.cpu.commit.committedInstType_0::SimdFloatSqrt            0      0.00%     65.84% # Class of committed instruction (Count)
system.cpu.commit.committedInstType_0::SimdReduceAdd            0      0.00%     65.84% # Class of committed instruction (Count)
system.cpu.commit.committedInstType_0::SimdReduceAlu            0      0.00%     65.84% # Class of committed instruction (Count)
system.cpu.commit.committedInstType_0::SimdReduceCmp            0      0.00%     65.84% # Class of committed instruction (Count)
system.cpu.commit.committedInstType_0::SimdFloatReduceAdd            0      0.00%     65.84% # Class of committed instruction (Count)
system.cpu.commit.committedInstType_0::SimdFloatReduceCmp            0      0.00%     65.84% # Class of committed instruction (Count)
system.cpu.commit.committedInstType_0::SimdAes            0      0.00%     65.84% # Class of committed instruction (Count)
system.cpu.commit.committedInstType_0::SimdAesMix            0      0.00%     65.84% # Class of committed instruction (Count)
system.cpu.commit.committedInstType_0::SimdSha1Hash            0      0.00%     65.84% # Class of committed instruction (Count)
system.cpu.commit.committedInstType_0::SimdSha1Hash2            0      0.00%     65.84% # Class of committed instruction (Count)
system.cpu.commit.committedInstType_0::SimdSha256Hash            0      0.00%     65.84% # Class of committed instruction (Count)
system.cpu.commit.committedInstType_0::SimdSha256Hash2            0      0.00%     65.84% # Class of committed instruction (Count)
system.cpu.commit.committedInstType_0::SimdShaSigma2            0      0.00%     65.84% # Class of committed instruction (Count)
system.cpu.commit.committedInstType_0::SimdShaSigma3            0      0.00%     65.84% # Class of committed instruction (Count)
system.cpu.commit.committedInstType_0::SimdPredAlu            0      0.00%     65.84% # Class of committed instruction (Count)
system.cpu.commit.committedInstType_0::MemRead      5941599     16.81%     82.66% # Class of committed instruction (Count)
system.cpu.commit.committedInstType_0::MemWrite      3058838      8.66%     91.31% # Class of committed instruction (Count)
system.cpu.commit.committedInstType_0::FloatMemRead      2036911      5.76%     97.08% # Class of committed instruction (Count)
system.cpu.commit.committedInstType_0::FloatMemWrite      1032191      2.92%    100.00% # Class of committed instruction (Count)
system.cpu.commit.committedInstType_0::IprAccess            0      0.00%    100.00% # Class of committed instruction (Count)
system.cpu.commit.committedInstType_0::InstPrefetch            0      0.00%    100.00% # Class of committed instruction (Count)
system.cpu.commit.committedInstType_0::total     35336477                       # Class of committed instruction (Count)
system.cpu.commit.commitEligibleSamples       2569593                       # number cycles where commit BW limit reached (Cycle)
system.cpu.dcache.demandHits::cpu.data        7874759                       # number of demand (read+write) hits (Count)
system.cpu.dcache.demandHits::total           7874759                       # number of demand (read+write) hits (Count)
system.cpu.dcache.overallHits::cpu.data       7874759                       # number of overall hits (Count)
system.cpu.dcache.overallHits::total          7874759                       # number of overall hits (Count)
system.cpu.dcache.demandMisses::cpu.data        27099                       # number of demand (read+write) misses (Count)
system.cpu.dcache.demandMisses::total           27099                       # number of demand (read+write) misses (Count)
system.cpu.dcache.overallMisses::cpu.data        27099                       # number of overall misses (Count)
system.cpu.dcache.overallMisses::total          27099                       # number of overall misses (Count)
system.cpu.dcache.demandMissLatency::cpu.data   1174988500                       # number of demand (read+write) miss ticks (Tick)
system.cpu.dcache.demandMissLatency::total   1174988500                       # number of demand (read+write) miss ticks (Tick)
system.cpu.dcache.overallMissLatency::cpu.data   1174988500                       # number of overall miss ticks (Tick)
system.cpu.dcache.overallMissLatency::total   1174988500                       # number of overall miss ticks (Tick)
system.cpu.dcache.demandAccesses::cpu.data      7901858                       # number of demand (read+write) accesses (Count)
system.cpu.dcache.demandAccesses::total       7901858                       # number of demand (read+write) accesses (Count)
system.cpu.dcache.overallAccesses::cpu.data      7901858                       # number of overall (read+write) accesses (Count)
system.cpu.dcache.overallAccesses::total      7901858                       # number of overall (read+write) accesses (Count)
system.cpu.dcache.demandMissRate::cpu.data     0.003429                       # miss rate for demand accesses (Ratio)
system.cpu.dcache.demandMissRate::total      0.003429                       # miss rate for demand accesses (Ratio)
system.cpu.dcache.overallMissRate::cpu.data     0.003429                       # miss rate for overall accesses (Ratio)
system.cpu.dcache.overallMissRate::total     0.003429                       # miss rate for overall accesses (Ratio)
system.cpu.dcache.demandAvgMissLatency::cpu.data 43359.109192                       # average overall miss latency ((Cycle/Count))
system.cpu.dcache.demandAvgMissLatency::total 43359.109192                       # average overall miss latency ((Cycle/Count))
system.cpu.dcache.overallAvgMissLatency::cpu.data 43359.109192                       # average overall miss latency ((Cycle/Count))
system.cpu.dcache.overallAvgMissLatency::total 43359.109192                       # average overall miss latency ((Cycle/Count))
system.cpu.dcache.blockedCycles::no_mshrs        15677                       # number of cycles access was blocked (Cycle)
system.cpu.dcache.blockedCycles::no_targets            0                       # number of cycles access was blocked (Cycle)
system.cpu.dcache.blockedCauses::no_mshrs          307                       # number of times access was blocked (Count)
system.cpu.dcache.blockedCauses::no_targets            0                       # number of times access was blocked (Count)
system.cpu.dcache.avgBlocked::no_mshrs      51.065147                       # average number of cycles each access was blocked ((Cycle/Count))
system.cpu.dcache.avgBlocked::no_targets          nan                       # average number of cycles each access was blocked ((Cycle/Count))
system.cpu.dcache.writebacks::writebacks         5674                       # number of writebacks (Count)
system.cpu.dcache.writebacks::total              5674                       # number of writebacks (Count)
system.cpu.dcache.demandMshrHits::cpu.data        18600                       # number of demand (read+write) MSHR hits (Count)
system.cpu.dcache.demandMshrHits::total         18600                       # number of demand (read+write) MSHR hits (Count)
system.cpu.dcache.overallMshrHits::cpu.data        18600                       # number of overall MSHR hits (Count)
system.cpu.dcache.overallMshrHits::total        18600                       # number of overall MSHR hits (Count)
system.cpu.dcache.demandMshrMisses::cpu.data         8499                       # number of demand (read+write) MSHR misses (Count)
system.cpu.dcache.demandMshrMisses::total         8499                       # number of demand (read+write) MSHR misses (Count)
system.cpu.dcache.overallMshrMisses::cpu.data         8499                       # number of overall MSHR misses (Count)
system.cpu.dcache.overallMshrMisses::total         8499                       # number of overall MSHR misses (Count)
system.cpu.dcache.demandMshrMissLatency::cpu.data    490249000                       # number of demand (read+write) MSHR miss ticks (Tick)
system.cpu.dcache.demandMshrMissLatency::total    490249000                       # number of demand (read+write) MSHR miss ticks (Tick)
system.cpu.dcache.overallMshrMissLatency::cpu.data    490249000                       # number of overall MSHR miss ticks (Tick)
system.cpu.dcache.overallMshrMissLatency::total    490249000                       # number of overall MSHR miss ticks (Tick)
system.cpu.dcache.demandMshrMissRate::cpu.data     0.001076                       # mshr miss ratio for demand accesses (Ratio)
system.cpu.dcache.demandMshrMissRate::total     0.001076                       # mshr miss ratio for demand accesses (Ratio)
system.cpu.dcache.overallMshrMissRate::cpu.data     0.001076                       # mshr miss ratio for overall accesses (Ratio)
system.cpu.dcache.overallMshrMissRate::total     0.001076                       # mshr miss ratio for overall accesses (Ratio)
system.cpu.dcache.demandAvgMshrMissLatency::cpu.data 57683.139193                       # average overall mshr miss latency ((Cycle/Count))
system.cpu.dcache.demandAvgMshrMissLatency::total 57683.139193                       # average overall mshr miss latency ((Cycle/Count))
system.cpu.dcache.overallAvgMshrMissLatency::cpu.data 57683.139193                       # average overall mshr miss latency ((Cycle/Count))
system.cpu.dcache.overallAvgMshrMissLatency::total 57683.139193                       # average overall mshr miss latency ((Cycle/Count))
system.cpu.dcache.replacements                   7474                       # number of replacements (Count)
system.cpu.dcache.ReadReq.hits::cpu.data      3786440                       # number of ReadReq hits (Count)
system.cpu.dcache.ReadReq.hits::total         3786440                       # number of ReadReq hits (Count)
system.cpu.dcache.ReadReq.misses::cpu.data        24389                       # number of ReadReq misses (Count)
system.cpu.dcache.ReadReq.misses::total         24389                       # number of ReadReq misses (Count)
system.cpu.dcache.ReadReq.missLatency::cpu.data   1038926500                       # number of ReadReq miss ticks (Tick)
system.cpu.dcache.ReadReq.missLatency::total   1038926500                       # number of ReadReq miss ticks (Tick)
system.cpu.dcache.ReadReq.accesses::cpu.data      3810829                       # number of ReadReq accesses(hits+misses) (Count)
system.cpu.dcache.ReadReq.accesses::total      3810829                       # number of ReadReq accesses(hits+misses) (Count)
system.cpu.dcache.ReadReq.missRate::cpu.data     0.006400                       # miss rate for ReadReq accesses (Ratio)
system.cpu.dcache.ReadReq.missRate::total     0.006400                       # miss rate for ReadReq accesses (Ratio)
system.cpu.dcache.ReadReq.avgMissLatency::cpu.data 42598.159006                       # average ReadReq miss latency ((Tick/Count))
system.cpu.dcache.ReadReq.avgMissLatency::total 42598.159006                       # average ReadReq miss latency ((Tick/Count))
system.cpu.dcache.ReadReq.mshrHits::cpu.data        17619                       # number of ReadReq MSHR hits (Count)
system.cpu.dcache.ReadReq.mshrHits::total        17619                       # number of ReadReq MSHR hits (Count)
system.cpu.dcache.ReadReq.mshrMisses::cpu.data         6770                       # number of ReadReq MSHR misses (Count)
system.cpu.dcache.ReadReq.mshrMisses::total         6770                       # number of ReadReq MSHR misses (Count)
system.cpu.dcache.ReadReq.mshrMissLatency::cpu.data    362542000                       # number of ReadReq MSHR miss ticks (Tick)
system.cpu.dcache.ReadReq.mshrMissLatency::total    362542000                       # number of ReadReq MSHR miss ticks (Tick)
system.cpu.dcache.ReadReq.mshrMissRate::cpu.data     0.001777                       # mshr miss rate for ReadReq accesses (Ratio)
system.cpu.dcache.ReadReq.mshrMissRate::total     0.001777                       # mshr miss rate for ReadReq accesses (Ratio)
system.cpu.dcache.ReadReq.avgMshrMissLatency::cpu.data 53551.255539                       # average ReadReq mshr miss latency ((Tick/Count))
system.cpu.dcache.ReadReq.avgMshrMissLatency::total 53551.255539                       # average ReadReq mshr miss latency ((Tick/Count))
system.cpu.dcache.WriteReq.hits::cpu.data      4088319                       # number of WriteReq hits (Count)
system.cpu.dcache.WriteReq.hits::total        4088319                       # number of WriteReq hits (Count)
system.cpu.dcache.WriteReq.misses::cpu.data         2710                       # number of WriteReq misses (Count)
system.cpu.dcache.WriteReq.misses::total         2710                       # number of WriteReq misses (Count)
system.cpu.dcache.WriteReq.missLatency::cpu.data    136062000                       # number of WriteReq miss ticks (Tick)
system.cpu.dcache.WriteReq.missLatency::total    136062000                       # number of WriteReq miss ticks (Tick)
system.cpu.dcache.WriteReq.accesses::cpu.data      4091029                       # number of WriteReq accesses(hits+misses) (Count)
system.cpu.dcache.WriteReq.accesses::total      4091029                       # number of WriteReq accesses(hits+misses) (Count)
system.cpu.dcache.WriteReq.missRate::cpu.data     0.000662                       # miss rate for WriteReq accesses (Ratio)
system.cpu.dcache.WriteReq.missRate::total     0.000662                       # miss rate for WriteReq accesses (Ratio)
system.cpu.dcache.WriteReq.avgMissLatency::cpu.data 50207.380074                       # average WriteReq miss latency ((Tick/Count))
system.cpu.dcache.WriteReq.avgMissLatency::total 50207.380074                       # average WriteReq miss latency ((Tick/Count))
system.cpu.dcache.WriteReq.mshrHits::cpu.data          981                       # number of WriteReq MSHR hits (Count)
system.cpu.dcache.WriteReq.mshrHits::total          981                       # number of WriteReq MSHR hits (Count)
system.cpu.dcache.WriteReq.mshrMisses::cpu.data         1729                       # number of WriteReq MSHR misses (Count)
system.cpu.dcache.WriteReq.mshrMisses::total         1729                       # number of WriteReq MSHR misses (Count)
system.cpu.dcache.WriteReq.mshrMissLatency::cpu.data    127707000                       # number of WriteReq MSHR miss ticks (Tick)
system.cpu.dcache.WriteReq.mshrMissLatency::total    127707000                       # number of WriteReq MSHR miss ticks (Tick)
system.cpu.dcache.WriteReq.mshrMissRate::cpu.data     0.000423                       # mshr miss rate for WriteReq accesses (Ratio)
system.cpu.dcache.WriteReq.mshrMissRate::total     0.000423                       # mshr miss rate for WriteReq accesses (Ratio)
system.cpu.dcache.WriteReq.avgMshrMissLatency::cpu.data 73861.769809                       # average WriteReq mshr miss latency ((Tick/Count))
system.cpu.dcache.WriteReq.avgMshrMissLatency::total 73861.769809                       # average WriteReq mshr miss latency ((Tick/Count))
system.cpu.dcache.power_state.pwrStateResidencyTicks::UNDEFINED   5315346500                       # Cumulative time (in ticks) in various power states (Tick)
system.cpu.dcache.tags.tagsInUse          1011.555171                       # Average ticks per tags in use ((Tick/Count))
system.cpu.dcache.tags.totalRefs              7883258                       # Total number of references to valid blocks. (Count)
system.cpu.dcache.tags.sampledRefs               8498                       # Sample count of references to valid blocks. (Count)
system.cpu.dcache.tags.avgRefs             927.660391                       # Average number of references to valid blocks. ((Count/Count))
system.cpu.dcache.tags.warmupTick              168000                       # The tick when the warmup percentage was hit. (Tick)
system.cpu.dcache.tags.occupancies::cpu.data  1011.555171                       # Average occupied blocks per tick, per requestor ((Count/Tick))
system.cpu.dcache.tags.avgOccs::cpu.data     0.987847                       # Average percentage of cache occupancy ((Ratio/Tick))
system.cpu.dcache.tags.avgOccs::total        0.987847                       # Average percentage of cache occupancy ((Ratio/Tick))
system.cpu.dcache.tags.occupanciesTaskId::1024         1024                       # Occupied blocks per task id (Count)
system.cpu.dcache.tags.ageTaskId_1024::0           48                       # Occupied blocks per task id, per block age (Count)
system.cpu.dcache.tags.ageTaskId_1024::1           13                       # Occupied blocks per task id, per block age (Count)
system.cpu.dcache.tags.ageTaskId_1024::2          963                       # Occupied blocks per task id, per block age (Count)
system.cpu.dcache.tags.ratioOccsTaskId::1024            1                       # Ratio of occupied blocks and all blocks, per task id (Ratio)
system.cpu.dcache.tags.tagAccesses           15812214                       # Number of tag accesses (Count)
system.cpu.dcache.tags.dataAccesses          15812214                       # Number of data accesses (Count)
system.cpu.dcache.tags.power_state.pwrStateResidencyTicks::UNDEFINED   5315346500                       # Cumulative time (in ticks) in various power states (Tick)
system.cpu.decode.idleCycles                  3645320                       # Number of cycles decode is idle (Cycle)
system.cpu.decode.blockedCycles                580079                       # Number of cycles decode is blocked (Cycle)
system.cpu.decode.runCycles                   6213986                       # Number of cycles decode is running (Cycle)
system.cpu.decode.unblockCycles                 81143                       # Number of cycles decode is unblocking (Cycle)
system.cpu.decode.squashCycles                  15098                       # Number of cycles decode is squashing (Cycle)
system.cpu.decode.branchResolved              1373902                       # Number of times decode resolved a branch (Count)
system.cpu.decode.branchMispred                  1618                       # Number of times decode detected a branch misprediction (Count)
system.cpu.decode.decodedInsts               36037547                       # Number of instructions handled by decode (Count)
system.cpu.decode.squashedInsts                  3828                       # Number of squashed instructions handled by decode (Count)
system.cpu.fetch.icacheStallCycles            3710255                       # Number of cycles fetch is stalled on an Icache miss (Cycle)
system.cpu.fetch.insts                       20359266                       # Number of instructions fetch has processed (Count)
system.cpu.fetch.branches                     3380735                       # Number of branches that fetch encountered (Count)
system.cpu.fetch.predictedBranches            2479976                       # Number of branches that fetch has predicted taken (Count)
system.cpu.fetch.cycles                       6806228                       # Number of cycles fetch has run and was not squashing or blocked (Cycle)
system.cpu.fetch.squashCycles                   33404                       # Number of cycles fetch has spent squashing (Cycle)
system.cpu.fetch.miscStallCycles                  279                       # Number of cycles fetch has spent waiting on interrupts, or bad addresses, or out of MSHRs (Cycle)
system.cpu.fetch.pendingTrapStallCycles          2047                       # Number of stall cycles due to pending traps (Cycle)
system.cpu.fetch.pendingQuiesceStallCycles          115                       # Number of stall cycles due to pending quiesce instructions (Cycle)
system.cpu.fetch.cacheLines                   3659684                       # Number of cache lines fetched (Count)
system.cpu.fetch.icacheSquashes                  5501                       # Number of outstanding Icache misses that were squashed (Count)
system.cpu.fetch.nisnDist::samples           10535626                       # Number of instructions fetched each cycle (Total) (Count)
system.cpu.fetch.nisnDist::mean              3.431305                       # Number of instructions fetched each cycle (Total) (Count)
system.cpu.fetch.nisnDist::stdev             3.482067                       # Number of instructions fetched each cycle (Total) (Count)
system.cpu.fetch.nisnDist::underflows               0      0.00%      0.00% # Number of instructions fetched each cycle (Total) (Count)
system.cpu.fetch.nisnDist::0                  4164666     39.53%     39.53% # Number of instructions fetched each cycle (Total) (Count)
system.cpu.fetch.nisnDist::1                  1087643     10.32%     49.85% # Number of instructions fetched each cycle (Total) (Count)
system.cpu.fetch.nisnDist::2                   104873      1.00%     50.85% # Number of instructions fetched each cycle (Total) (Count)
system.cpu.fetch.nisnDist::3                   128677      1.22%     52.07% # Number of instructions fetched each cycle (Total) (Count)
system.cpu.fetch.nisnDist::4                  1095748     10.40%     62.47% # Number of instructions fetched each cycle (Total) (Count)
system.cpu.fetch.nisnDist::5                    96253      0.91%     63.38% # Number of instructions fetched each cycle (Total) (Count)
system.cpu.fetch.nisnDist::6                   584738      5.55%     68.93% # Number of instructions fetched each cycle (Total) (Count)
system.cpu.fetch.nisnDist::7                    89378      0.85%     69.78% # Number of instructions fetched each cycle (Total) (Count)
system.cpu.fetch.nisnDist::8                  3183650     30.22%    100.00% # Number of instructions fetched each cycle (Total) (Count)
system.cpu.fetch.nisnDist::overflows                0      0.00%    100.00% # Number of instructions fetched each cycle (Total) (Count)
system.cpu.fetch.nisnDist::min_value                0                       # Number of instructions fetched each cycle (Total) (Count)
system.cpu.fetch.nisnDist::max_value                8                       # Number of instructions fetched each cycle (Total) (Count)
system.cpu.fetch.nisnDist::total             10535626                       # Number of instructions fetched each cycle (Total) (Count)
system.cpu.fetch.branchRate                  0.318016                       # Number of branch fetches per cycle (Ratio)
system.cpu.fetch.rate                        1.915140                       # Number of inst fetches per cycle ((Count/Cycle))
system.cpu.icache.demandHits::cpu.inst        3657881                       # number of demand (read+write) hits (Count)
system.cpu.icache.demandHits::total           3657881                       # number of demand (read+write) hits (Count)
system.cpu.icache.overallHits::cpu.inst       3657881                       # number of overall hits (Count)
system.cpu.icache.overallHits::total          3657881                       # number of overall hits (Count)
system.cpu.icache.demandMisses::cpu.inst         1803                       # number of demand (read+write) misses (Count)
system.cpu.icache.demandMisses::total            1803                       # number of demand (read+write) misses (Count)
system.cpu.icache.overallMisses::cpu.inst         1803                       # number of overall misses (Count)
system.cpu.icache.overallMisses::total           1803                       # number of overall misses (Count)
system.cpu.icache.demandMissLatency::cpu.inst    126154500                       # number of demand (read+write) miss ticks (Tick)
system.cpu.icache.demandMissLatency::total    126154500                       # number of demand (read+write) miss ticks (Tick)
system.cpu.icache.overallMissLatency::cpu.inst    126154500                       # number of overall miss ticks (Tick)
system.cpu.icache.overallMissLatency::total    126154500                       # number of overall miss ticks (Tick)
system.cpu.icache.demandAccesses::cpu.inst      3659684                       # number of demand (read+write) accesses (Count)
system.cpu.icache.demandAccesses::total       3659684                       # number of demand (read+write) accesses (Count)
system.cpu.icache.overallAccesses::cpu.inst      3659684                       # number of overall (read+write) accesses (Count)
system.cpu.icache.overallAccesses::total      3659684                       # number of overall (read+write) accesses (Count)
system.cpu.icache.demandMissRate::cpu.inst     0.000493                       # miss rate for demand accesses (Ratio)
system.cpu.icache.demandMissRate::total      0.000493                       # miss rate for demand accesses (Ratio)
system.cpu.icache.overallMissRate::cpu.inst     0.000493                       # miss rate for overall accesses (Ratio)
system.cpu.icache.overallMissRate::total     0.000493                       # miss rate for overall accesses (Ratio)
system.cpu.icache.demandAvgMissLatency::cpu.inst 69969.217970                       # average overall miss latency ((Cycle/Count))
system.cpu.icache.demandAvgMissLatency::total 69969.217970                       # average overall miss latency ((Cycle/Count))
system.cpu.icache.overallAvgMissLatency::cpu.inst 69969.217970                       # average overall miss latency ((Cycle/Count))
system.cpu.icache.overallAvgMissLatency::total 69969.217970                       # average overall miss latency ((Cycle/Count))
system.cpu.icache.blockedCycles::no_mshrs          156                       # number of cycles access was blocked (Cycle)
system.cpu.icache.blockedCycles::no_targets            0                       # number of cycles access was blocked (Cycle)
system.cpu.icache.blockedCauses::no_mshrs            3                       # number of times access was blocked (Count)
system.cpu.icache.blockedCauses::no_targets            0                       # number of times access was blocked (Count)
system.cpu.icache.avgBlocked::no_mshrs             52                       # average number of cycles each access was blocked ((Cycle/Count))
system.cpu.icache.avgBlocked::no_targets          nan                       # average number of cycles each access was blocked ((Cycle/Count))
system.cpu.icache.demandMshrHits::cpu.inst          431                       # number of demand (read+write) MSHR hits (Count)
system.cpu.icache.demandMshrHits::total           431                       # number of demand (read+write) MSHR hits (Count)
system.cpu.icache.overallMshrHits::cpu.inst          431                       # number of overall MSHR hits (Count)
system.cpu.icache.overallMshrHits::total          431                       # number of overall MSHR hits (Count)
system.cpu.icache.demandMshrMisses::cpu.inst         1372                       # number of demand (read+write) MSHR misses (Count)
system.cpu.icache.demandMshrMisses::total         1372                       # number of demand (read+write) MSHR misses (Count)
system.cpu.icache.overallMshrMisses::cpu.inst         1372                       # number of overall MSHR misses (Count)
system.cpu.icache.overallMshrMisses::total         1372                       # number of overall MSHR misses (Count)
system.cpu.icache.demandMshrMissLatency::cpu.inst     99504500                       # number of demand (read+write) MSHR miss ticks (Tick)
system.cpu.icache.demandMshrMissLatency::total     99504500                       # number of demand (read+write) MSHR miss ticks (Tick)
system.cpu.icache.overallMshrMissLatency::cpu.inst     99504500                       # number of overall MSHR miss ticks (Tick)
system.cpu.icache.overallMshrMissLatency::total     99504500                       # number of overall MSHR miss ticks (Tick)
system.cpu.icache.demandMshrMissRate::cpu.inst     0.000375                       # mshr miss ratio for demand accesses (Ratio)
system.cpu.icache.demandMshrMissRate::total     0.000375                       # mshr miss ratio for demand accesses (Ratio)
system.cpu.icache.overallMshrMissRate::cpu.inst     0.000375                       # mshr miss ratio for overall accesses (Ratio)
system.cpu.icache.overallMshrMissRate::total     0.000375                       # mshr miss ratio for overall accesses (Ratio)
system.cpu.icache.demandAvgMshrMissLatency::cpu.inst 72525.145773                       # average overall mshr miss latency ((Cycle/Count))
system.cpu.icache.demandAvgMshrMissLatency::total 72525.145773                       # average overall mshr miss latency ((Cycle/Count))
system.cpu.icache.overallAvgMshrMissLatency::cpu.inst 72525.145773                       # average overall mshr miss latency ((Cycle/Count))
system.cpu.icache.overallAvgMshrMissLatency::total 72525.145773                       # average overall mshr miss latency ((Cycle/Count))
system.cpu.icache.replacements                    480                       # number of replacements (Count)
system.cpu.icache.ReadReq.hits::cpu.inst      3657881                       # number of ReadReq hits (Count)
system.cpu.icache.ReadReq.hits::total         3657881                       # number of ReadReq hits (Count)
system.cpu.icache.ReadReq.misses::cpu.inst         1803                       # number of ReadReq misses (Count)
system.cpu.icache.ReadReq.misses::total          1803                       # number of ReadReq misses (Count)
system.cpu.icache.ReadReq.missLatency::cpu.inst    126154500                       # number of ReadReq miss ticks (Tick)
system.cpu.icache.ReadReq.missLatency::total    126154500                       # number of ReadReq miss ticks (Tick)
system.cpu.icache.ReadReq.accesses::cpu.inst      3659684                       # number of ReadReq accesses(hits+misses) (Count)
system.cpu.icache.ReadReq.accesses::total      3659684                       # number of ReadReq accesses(hits+misses) (Count)
system.cpu.icache.ReadReq.missRate::cpu.inst     0.000493                       # miss rate for ReadReq accesses (Ratio)
system.cpu.icache.ReadReq.missRate::total     0.000493                       # miss rate for ReadReq accesses (Ratio)
system.cpu.icache.ReadReq.avgMissLatency::cpu.inst 69969.217970                       # average ReadReq miss latency ((Tick/Count))
system.cpu.icache.ReadReq.avgMissLatency::total 69969.217970                       # average ReadReq miss latency ((Tick/Count))
system.cpu.icache.ReadReq.mshrHits::cpu.inst          431                       # number of ReadReq MSHR hits (Count)
system.cpu.icache.ReadReq.mshrHits::total          431                       # number of ReadReq MSHR hits (Count)
system.cpu.icache.ReadReq.mshrMisses::cpu.inst         1372                       # number of ReadReq MSHR misses (Count)
system.cpu.icache.ReadReq.mshrMisses::total         1372                       # number of ReadReq MSHR misses (Count)
system.cpu.icache.ReadReq.mshrMissLatency::cpu.inst     99504500                       # number of ReadReq MSHR miss ticks (Tick)
system.cpu.icache.ReadReq.mshrMissLatency::total     99504500                       # number of ReadReq MSHR miss ticks (Tick)
system.cpu.icache.ReadReq.mshrMissRate::cpu.inst     0.000375                       # mshr miss rate for ReadReq accesses (Ratio)
system.cpu.icache.ReadReq.mshrMissRate::total     0.000375                       # mshr miss rate for ReadReq accesses (Ratio)
system.cpu.icache.ReadReq.avgMshrMissLatency::cpu.inst 72525.145773                       # average ReadReq mshr miss latency ((Tick/Count))
system.cpu.icache.ReadReq.avgMshrMissLatency::total 72525.145773                       # average ReadReq mshr miss latency ((Tick/Count))
system.cpu.icache.power_state.pwrStateResidencyTicks::UNDEFINED   5315346500                       # Cumulative time (in ticks) in various power states (Tick)
system.cpu.icache.tags.tagsInUse           745.419439                       # Average ticks per tags in use ((Tick/Count))
system.cpu.icache.tags.totalRefs              3659252                       # Total number of references to valid blocks. (Count)
system.cpu.icache.tags.sampledRefs               1371                       # Sample count of references to valid blocks. (Count)
system.cpu.icache.tags.avgRefs            2669.038658                       # Average number of references to valid blocks. ((Count/Count))
system.cpu.icache.tags.warmupTick               82000                       # The tick when the warmup percentage was hit. (Tick)
system.cpu.icache.tags.occupancies::cpu.inst   745.419439                       # Average occupied blocks per tick, per requestor ((Count/Tick))
system.cpu.icache.tags.avgOccs::cpu.inst     0.727949                       # Average percentage of cache occupancy ((Ratio/Tick))
system.cpu.icache.tags.avgOccs::total        0.727949                       # Average percentage of cache occupancy ((Ratio/Tick))
system.cpu.icache.tags.occupanciesTaskId::1024          890                       # Occupied blocks per task id (Count)
system.cpu.icache.tags.ageTaskId_1024::0           88                       # Occupied blocks per task id, per block age (Count)
system.cpu.icache.tags.ageTaskId_1024::2          325                       # Occupied blocks per task id, per block age (Count)
system.cpu.icache.tags.ageTaskId_1024::3          477                       # Occupied blocks per task id, per block age (Count)
system.cpu.icache.tags.ratioOccsTaskId::1024     0.869141                       # Ratio of occupied blocks and all blocks, per task id (Ratio)
system.cpu.icache.tags.tagAccesses            7320739                       # Number of tag accesses (Count)
system.cpu.icache.tags.dataAccesses           7320739                       # Number of data accesses (Count)
system.cpu.icache.tags.power_state.pwrStateResidencyTicks::UNDEFINED   5315346500                       # Cumulative time (in ticks) in various power states (Tick)
system.cpu.iew.idleCycles                           0                       # Number of cycles IEW is idle (Cycle)
system.cpu.iew.squashCycles                     15098                       # Number of cycles IEW is squashing (Cycle)
system.cpu.iew.blockCycles                     147222                       # Number of cycles IEW is blocking (Cycle)
system.cpu.iew.unblockCycles                     9369                       # Number of cycles IEW is unblocking (Cycle)
system.cpu.iew.dispatchedInsts               35859590                       # Number of instructions dispatched to IQ (Count)
system.cpu.iew.dispSquashedInsts                  401                       # Number of squashed instructions skipped by dispatch (Count)
system.cpu.iew.dispLoadInsts                  8057133                       # Number of dispatched load instructions (Count)
system.cpu.iew.dispStoreInsts                 4112916                       # Number of dispatched store instructions (Count)
system.cpu.iew.dispNonSpecInsts                    33                       # Number of dispatched non-speculative instructions (Count)
system.cpu.iew.iqFullEvents                      2266                       # Number of times the IQ has become full, causing a stall (Count)
system.cpu.iew.lsqFullEvents                     6681                       # Number of times the LSQ has become full, causing a stall (Count)
system.cpu.iew.memOrderViolationEvents            521                       # Number of memory order violations (Count)
system.cpu.iew.predictedTakenIncorrect           5127                       # Number of branches that were predicted taken incorrectly (Count)
system.cpu.iew.predictedNotTakenIncorrect         9374                       # Number of branches that were predicted not taken incorrectly (Count)
system.cpu.iew.branchMispredicts                14501                       # Number of branch mispredicts detected at execute (Count)
system.cpu.iew.instsToCommit                 35667256                       # Cumulative count of insts sent to commit (Count)
system.cpu.iew.writebackCount                35661060                       # Cumulative count of insts written-back (Count)
system.cpu.iew.producerInst                  22830578                       # Number of instructions producing a value (Count)
system.cpu.iew.consumerInst                  30370931                       # Number of instructions consuming a value (Count)
system.cpu.iew.wbRate                        3.354537                       # Insts written-back per cycle ((Count/Cycle))
system.cpu.iew.wbFanout                      0.751725                       # Average fanout of values written-back ((Count/Count))
system.cpu.interrupts.clk_domain.clock           8000                       # Clock period in ticks (Tick)
system.cpu.l2cache.demandHits::cpu.inst            54                       # number of demand (read+write) hits (Count)
system.cpu.l2cache.demandHits::cpu.data          2542                       # number of demand (read+write) hits (Count)
system.cpu.l2cache.demandHits::total             2596                       # number of demand (read+write) hits (Count)
system.cpu.l2cache.overallHits::cpu.inst           54                       # number of overall hits (Count)
system.cpu.l2cache.overallHits::cpu.data         2542                       # number of overall hits (Count)
system.cpu.l2cache.overallHits::total            2596                       # number of overall hits (Count)
system.cpu.l2cache.demandMisses::cpu.inst         1317                       # number of demand (read+write) misses (Count)
system.cpu.l2cache.demandMisses::cpu.data         5956                       # number of demand (read+write) misses (Count)
system.cpu.l2cache.demandMisses::total           7273                       # number of demand (read+write) misses (Count)
system.cpu.l2cache.overallMisses::cpu.inst         1317                       # number of overall misses (Count)
system.cpu.l2cache.overallMisses::cpu.data         5956                       # number of overall misses (Count)
system.cpu.l2cache.overallMisses::total          7273                       # number of overall misses (Count)
system.cpu.l2cache.demandMissLatency::cpu.inst     96871000                       # number of demand (read+write) miss ticks (Tick)
system.cpu.l2cache.demandMissLatency::cpu.data    450723000                       # number of demand (read+write) miss ticks (Tick)
system.cpu.l2cache.demandMissLatency::total    547594000                       # number of demand (read+write) miss ticks (Tick)
system.cpu.l2cache.overallMissLatency::cpu.inst     96871000                       # number of overall miss ticks (Tick)
system.cpu.l2cache.overallMissLatency::cpu.data    450723000                       # number of overall miss ticks (Tick)
system.cpu.l2cache.overallMissLatency::total    547594000                       # number of overall miss ticks (Tick)
system.cpu.l2cache.demandAccesses::cpu.inst         1371                       # number of demand (read+write) accesses (Count)
system.cpu.l2cache.demandAccesses::cpu.data         8498                       # number of demand (read+write) accesses (Count)
system.cpu.l2cache.demandAccesses::total         9869                       # number of demand (read+write) accesses (Count)
system.cpu.l2cache.overallAccesses::cpu.inst         1371                       # number of overall (read+write) accesses (Count)
system.cpu.l2cache.overallAccesses::cpu.data         8498                       # number of overall (read+write) accesses (Count)
system.cpu.l2cache.overallAccesses::total         9869                       # number of overall (read+write) accesses (Count)
system.cpu.l2cache.demandMissRate::cpu.inst     0.960613                       # miss rate for demand accesses (Ratio)
system.cpu.l2cache.demandMissRate::cpu.data     0.700871                       # miss rate for demand accesses (Ratio)
system.cpu.l2cache.demandMissRate::total     0.736954                       # miss rate for demand accesses (Ratio)
system.cpu.l2cache.overallMissRate::cpu.inst     0.960613                       # miss rate for overall accesses (Ratio)
system.cpu.l2cache.overallMissRate::cpu.data     0.700871                       # miss rate for overall accesses (Ratio)
system.cpu.l2cache.overallMissRate::total     0.736954                       # miss rate for overall accesses (Ratio)
system.cpu.l2cache.demandAvgMissLatency::cpu.inst 73554.290053                       # average overall miss latency ((Cycle/Count))
system.cpu.l2cache.demandAvgMissLatency::cpu.data 75675.453324                       # average overall miss latency ((Cycle/Count))
system.cpu.l2cache.demandAvgMissLatency::total 75291.351574                       # average overall miss latency ((Cycle/Count))
system.cpu.l2cache.overallAvgMissLatency::cpu.inst 73554.290053                       # average overall miss latency ((Cycle/Count))
system.cpu.l2cache.overallAvgMissLatency::cpu.data 75675.453324                       # average overall miss latency ((Cycle/Count))
system.cpu.l2cache.overallAvgMissLatency::total 75291.351574                       # average overall miss latency ((Cycle/Count))
system.cpu.l2cache.blockedCycles::no_mshrs            0                       # number of cycles access was blocked (Cycle)
system.cpu.l2cache.blockedCycles::no_targets            0                       # number of cycles access was blocked (Cycle)
system.cpu.l2cache.blockedCauses::no_mshrs            0                       # number of times access was blocked (Count)
system.cpu.l2cache.blockedCauses::no_targets            0                       # number of times access was blocked (Count)
system.cpu.l2cache.avgBlocked::no_mshrs           nan                       # average number of cycles each access was blocked ((Cycle/Count))
system.cpu.l2cache.avgBlocked::no_targets          nan                       # average number of cycles each access was blocked ((Cycle/Count))
system.cpu.l2cache.writebacks::writebacks         1383                       # number of writebacks (Count)
system.cpu.l2cache.writebacks::total             1383                       # number of writebacks (Count)
system.cpu.l2cache.demandMshrMisses::cpu.inst         1317                       # number of demand (read+write) MSHR misses (Count)
system.cpu.l2cache.demandMshrMisses::cpu.data         5956                       # number of demand (read+write) MSHR misses (Count)
system.cpu.l2cache.demandMshrMisses::total         7273                       # number of demand (read+write) MSHR misses (Count)
system.cpu.l2cache.overallMshrMisses::cpu.inst         1317                       # number of overall MSHR misses (Count)
system.cpu.l2cache.overallMshrMisses::cpu.data         5956                       # number of overall MSHR misses (Count)
system.cpu.l2cache.overallMshrMisses::total         7273                       # number of overall MSHR misses (Count)
system.cpu.l2cache.demandMshrMissLatency::cpu.inst     83711000                       # number of demand (read+write) MSHR miss ticks (Tick)
system.cpu.l2cache.demandMshrMissLatency::cpu.data    391163000                       # number of demand (read+write) MSHR miss ticks (Tick)
system.cpu.l2cache.demandMshrMissLatency::total    474874000                       # number of demand (read+write) MSHR miss ticks (Tick)
system.cpu.l2cache.overallMshrMissLatency::cpu.inst     83711000                       # number of overall MSHR miss ticks (Tick)
system.cpu.l2cache.overallMshrMissLatency::cpu.data    391163000                       # number of overall MSHR miss ticks (Tick)
system.cpu.l2cache.overallMshrMissLatency::total    474874000                       # number of overall MSHR miss ticks (Tick)
system.cpu.l2cache.demandMshrMissRate::cpu.inst     0.960613                       # mshr miss ratio for demand accesses (Ratio)
system.cpu.l2cache.demandMshrMissRate::cpu.data     0.700871                       # mshr miss ratio for demand accesses (Ratio)
system.cpu.l2cache.demandMshrMissRate::total     0.736954                       # mshr miss ratio for demand accesses (Ratio)
[...]
system.mem_ctrl.dram.bytesWritten::total        88512                       # Number of bytes written to this memory (Byte)
system.mem_ctrl.dram.numReads::cpu.inst          1316                       # Number of read requests responded to by this memory (Count)
system.mem_ctrl.dram.numReads::cpu.data          5956                       # Number of read requests responded to by this memory (Count)
system.mem_ctrl.dram.numReads::total             7272                       # Number of read requests responded to by this memory (Count)
system.mem_ctrl.dram.numWrites::writebacks         1383                       # Number of write requests responded to by this memory (Count)
system.mem_ctrl.dram.numWrites::total            1383                       # Number of write requests responded to by this memory (Count)
system.mem_ctrl.dram.bwRead::cpu.inst        15845439                       # Total read bandwidth from this memory ((Byte/Second))
system.mem_ctrl.dram.bwRead::cpu.data        71713857                       # Total read bandwidth from this memory ((Byte/Second))
system.mem_ctrl.dram.bwRead::total           87559296                       # Total read bandwidth from this memory ((Byte/Second))
system.mem_ctrl.dram.bwInstRead::cpu.inst     15845439                       # Instruction read bandwidth from this memory ((Byte/Second))
system.mem_ctrl.dram.bwInstRead::total       15845439                       # Instruction read bandwidth from this memory ((Byte/Second))
system.mem_ctrl.dram.bwWrite::writebacks     16652160                       # Write bandwidth from this memory ((Byte/Second))
system.mem_ctrl.dram.bwWrite::total          16652160                       # Write bandwidth from this memory ((Byte/Second))
system.mem_ctrl.dram.bwTotal::writebacks     16652160                       # Total bandwidth to/from this memory ((Byte/Second))
system.mem_ctrl.dram.bwTotal::cpu.inst       15845439                       # Total bandwidth to/from this memory ((Byte/Second))
system.mem_ctrl.dram.bwTotal::cpu.data       71713857                       # Total bandwidth to/from this memory ((Byte/Second))
system.mem_ctrl.dram.bwTotal::total         104211456                       # Total bandwidth to/from this memory ((Byte/Second))
system.mem_ctrl.dram.readBursts                  7267                       # Number of DRAM read bursts (Count)
system.mem_ctrl.dram.writeBursts                 1359                       # Number of DRAM write bursts (Count)
system.mem_ctrl.dram.perBankRdBursts::0           554                       # Per bank write bursts (Count)
system.mem_ctrl.dram.perBankRdBursts::1           541                       # Per bank write bursts (Count)
system.mem_ctrl.dram.perBankRdBursts::2           807                       # Per bank write bursts (Count)
system.mem_ctrl.dram.perBankRdBursts::3           482                       # Per bank write bursts (Count)
system.mem_ctrl.dram.perBankRdBursts::4           458                       # Per bank write bursts (Count)
system.mem_ctrl.dram.perBankRdBursts::5           377                       # Per bank write bursts (Count)
system.mem_ctrl.dram.perBankRdBursts::6           346                       # Per bank write bursts (Count)
system.mem_ctrl.dram.perBankRdBursts::7           318                       # Per bank write bursts (Count)
system.mem_ctrl.dram.perBankRdBursts::8           344                       # Per bank write bursts (Count)
system.mem_ctrl.dram.perBankRdBursts::9           441                       # Per bank write bursts (Count)
system.mem_ctrl.dram.perBankRdBursts::10          507                       # Per bank write bursts (Count)
system.mem_ctrl.dram.perBankRdBursts::11          429                       # Per bank write bursts (Count)
system.mem_ctrl.dram.perBankRdBursts::12          354                       # Per bank write bursts (Count)
system.mem_ctrl.dram.perBankRdBursts::13          393                       # Per bank write bursts (Count)
system.mem_ctrl.dram.perBankRdBursts::14          406                       # Per bank write bursts (Count)
system.mem_ctrl.dram.perBankRdBursts::15          510                       # Per bank write bursts (Count)
system.mem_ctrl.dram.perBankWrBursts::0           108                       # Per bank write bursts (Count)
system.mem_ctrl.dram.perBankWrBursts::1           104                       # Per bank write bursts (Count)
system.mem_ctrl.dram.perBankWrBursts::2           301                       # Per bank write bursts (Count)
system.mem_ctrl.dram.perBankWrBursts::3           122                       # Per bank write bursts (Count)
system.mem_ctrl.dram.perBankWrBursts::4            59                       # Per bank write bursts (Count)
system.mem_ctrl.dram.perBankWrBursts::5            12                       # Per bank write bursts (Count)
system.mem_ctrl.dram.perBankWrBursts::6            88                       # Per bank write bursts (Count)
system.mem_ctrl.dram.perBankWrBursts::7            13                       # Per bank write bursts (Count)
system.mem_ctrl.dram.perBankWrBursts::8             2                       # Per bank write bursts (Count)
system.mem_ctrl.dram.perBankWrBursts::9            66                       # Per bank write bursts (Count)
system.mem_ctrl.dram.perBankWrBursts::10          133                       # Per bank write bursts (Count)
system.mem_ctrl.dram.perBankWrBursts::11           44                       # Per bank write bursts (Count)
system.mem_ctrl.dram.perBankWrBursts::12            7                       # Per bank write bursts (Count)
system.mem_ctrl.dram.perBankWrBursts::13           47                       # Per bank write bursts (Count)
system.mem_ctrl.dram.perBankWrBursts::14          128                       # Per bank write bursts (Count)
system.mem_ctrl.dram.perBankWrBursts::15          125                       # Per bank write bursts (Count)
system.mem_ctrl.dram.totQLat                 79203000                       # Total ticks spent queuing (Tick)
system.mem_ctrl.dram.totBusLat               36335000                       # Total ticks spent in databus transfers (Tick)
system.mem_ctrl.dram.totMemAccLat           215459250                       # Total ticks spent from burst creation until serviced by the DRAM (Tick)
system.mem_ctrl.dram.avgQLat                 10899.00                       # Average queueing delay per DRAM burst ((Tick/Count))
system.mem_ctrl.dram.avgBusLat                5000.00                       # Average bus latency per DRAM burst ((Tick/Count))
system.mem_ctrl.dram.avgMemAccLat            29649.00                       # Average memory access latency per DRAM burst ((Tick/Count))
system.mem_ctrl.dram.readRowHits                 5954                       # Number of row buffer hits during reads (Count)
system.mem_ctrl.dram.writeRowHits                1129                       # Number of row buffer hits during writes (Count)
system.mem_ctrl.dram.readRowHitRate             81.93                       # Row buffer hit rate for reads (Ratio)
system.mem_ctrl.dram.writeRowHitRate            83.08                       # Row buffer hit rate for writes (Ratio)
system.mem_ctrl.dram.bytesPerActivate::samples         1529                       # Bytes accessed per row activation (Byte)
system.mem_ctrl.dram.bytesPerActivate::mean   358.843689                       # Bytes accessed per row activation (Byte)
system.mem_ctrl.dram.bytesPerActivate::gmean   242.987007                       # Bytes accessed per row activation (Byte)
system.mem_ctrl.dram.bytesPerActivate::stdev   311.350180                       # Bytes accessed per row activation (Byte)
system.mem_ctrl.dram.bytesPerActivate::0-127          314     20.54%     20.54% # Bytes accessed per row activation (Byte)
system.mem_ctrl.dram.bytesPerActivate::128-255          477     31.20%     51.73% # Bytes accessed per row activation (Byte)
system.mem_ctrl.dram.bytesPerActivate::256-383          127      8.31%     60.04% # Bytes accessed per row activation (Byte)
system.mem_ctrl.dram.bytesPerActivate::384-511          225     14.72%     74.75% # Bytes accessed per row activation (Byte)
system.mem_ctrl.dram.bytesPerActivate::512-639           96      6.28%     81.03% # Bytes accessed per row activation (Byte)
system.mem_ctrl.dram.bytesPerActivate::640-767           44      2.88%     83.91% # Bytes accessed per row activation (Byte)
system.mem_ctrl.dram.bytesPerActivate::768-895           41      2.68%     86.59% # Bytes accessed per row activation (Byte)
system.mem_ctrl.dram.bytesPerActivate::896-1023           35      2.29%     88.88% # Bytes accessed per row activation (Byte)
system.mem_ctrl.dram.bytesPerActivate::1024-1151          170     11.12%    100.00% # Bytes accessed per row activation (Byte)
system.mem_ctrl.dram.bytesPerActivate::total         1529                       # Bytes accessed per row activation (Byte)
system.mem_ctrl.dram.bytesRead                 465088                       # Total bytes read (Byte)
system.mem_ctrl.dram.bytesWritten               86976                       # Total bytes written (Byte)
system.mem_ctrl.dram.avgRdBW                87.499093                       # Average DRAM read bandwidth in MiBytes/s ((Byte/Second))
system.mem_ctrl.dram.avgWrBW                16.363185                       # Average DRAM write bandwidth in MiBytes/s ((Byte/Second))
system.mem_ctrl.dram.peakBW                  12800.00                       # Theoretical peak bandwidth in MiByte/s ((Byte/Second))
system.mem_ctrl.dram.busUtil                     0.81                       # Data bus utilization in percentage (Ratio)
system.mem_ctrl.dram.busUtilRead                 0.68                       # Data bus utilization in percentage for reads (Ratio)
system.mem_ctrl.dram.busUtilWrite                0.13                       # Data bus utilization in percentage for writes (Ratio)
system.mem_ctrl.dram.pageHitRate                82.11                       # Row buffer hit rate, read and write combined (Ratio)
system.mem_ctrl.dram.power_state.pwrStateResidencyTicks::UNDEFINED   5315346500                       # Cumulative time (in ticks) in various power states (Tick)
system.mem_ctrl.dram.rank0.actEnergy          6061860                       # Energy for activate commands per rank (pJ) (Joule)
system.mem_ctrl.dram.rank0.preEnergy          3195390                       # Energy for precharge commands per rank (pJ) (Joule)
system.mem_ctrl.dram.rank0.readEnergy        27724620                       # Energy for read commands per rank (pJ) (Joule)
system.mem_ctrl.dram.rank0.writeEnergy        4212540                       # Energy for write commands per rank (pJ) (Joule)
system.mem_ctrl.dram.rank0.refreshEnergy 419184480.000000                       # Energy for refresh commands per rank (pJ) (Joule)
system.mem_ctrl.dram.rank0.actBackEnergy   1014922050                       # Energy for active background per rank (pJ) (Joule)
system.mem_ctrl.dram.rank0.preBackEnergy   1186422240                       # Energy for precharge background per rank (pJ) (Joule)
system.mem_ctrl.dram.rank0.actPowerDownEnergy            0                       # Energy for active power-down per rank (pJ) (Joule)
system.mem_ctrl.dram.rank0.prePowerDownEnergy            0                       # Energy for precharge power-down per rank (pJ) (Joule)
system.mem_ctrl.dram.rank0.selfRefreshEnergy            0                       # Energy for self refresh per rank (pJ) (Joule)
system.mem_ctrl.dram.rank0.totalEnergy     2661723180                       # Total energy per rank (pJ) (Joule)
system.mem_ctrl.dram.rank0.averagePower    500.761932                       # Core power per rank (mW) (Watt)
system.mem_ctrl.dram.rank0.totalIdleTime            0                       # Total Idle time Per DRAM Rank (Tick)
system.mem_ctrl.dram.rank0.pwrStateTime::IDLE   3074107000                       # Time in different power states (Tick)
system.mem_ctrl.dram.rank0.pwrStateTime::REF    177320000                       # Time in different power states (Tick)
system.mem_ctrl.dram.rank0.pwrStateTime::SREF            0                       # Time in different power states (Tick)
system.mem_ctrl.dram.rank0.pwrStateTime::PRE_PDN            0                       # Time in different power states (Tick)
system.mem_ctrl.dram.rank0.pwrStateTime::ACT   2063919500                       # Time in different power states (Tick)
system.mem_ctrl.dram.rank0.pwrStateTime::ACT_PDN            0                       # Time in different power states (Tick)
system.mem_ctrl.dram.rank1.actEnergy          4955160                       # Energy for activate commands per rank (pJ) (Joule)
system.mem_ctrl.dram.rank1.preEnergy          2607165                       # Energy for precharge commands per rank (pJ) (Joule)
system.mem_ctrl.dram.rank1.readEnergy        24161760                       # Energy for read commands per rank (pJ) (Joule)
system.mem_ctrl.dram.rank1.writeEnergy        2881440                       # Energy for write commands per rank (pJ) (Joule)
system.mem_ctrl.dram.rank1.refreshEnergy 419184480.000000                       # Energy for refresh commands per rank (pJ) (Joule)
system.mem_ctrl.dram.rank1.actBackEnergy    845265540                       # Energy for active background per rank (pJ) (Joule)
system.mem_ctrl.dram.rank1.preBackEnergy   1329290880                       # Energy for precharge background per rank (pJ) (Joule)
system.mem_ctrl.dram.rank1.actPowerDownEnergy            0                       # Energy for active power-down per rank (pJ) (Joule)
system.mem_ctrl.dram.rank1.prePowerDownEnergy            0                       # Energy for precharge power-down per rank (pJ) (Joule)
system.mem_ctrl.dram.rank1.selfRefreshEnergy            0                       # Energy for self refresh per rank (pJ) (Joule)
system.mem_ctrl.dram.rank1.totalEnergy     2628346425                       # Total energy per rank (pJ) (Joule)
system.mem_ctrl.dram.rank1.averagePower    494.482613                       # Core power per rank (mW) (Watt)
system.mem_ctrl.dram.rank1.totalIdleTime            0                       # Total Idle time Per DRAM Rank (Tick)
system.mem_ctrl.dram.rank1.pwrStateTime::IDLE   3447920750                       # Time in different power states (Tick)
system.mem_ctrl.dram.rank1.pwrStateTime::REF    177320000                       # Time in different power states (Tick)
system.mem_ctrl.dram.rank1.pwrStateTime::SREF            0                       # Time in different power states (Tick)
system.mem_ctrl.dram.rank1.pwrStateTime::PRE_PDN            0                       # Time in different power states (Tick)
system.mem_ctrl.dram.rank1.pwrStateTime::ACT   1690105750                       # Time in different power states (Tick)
system.mem_ctrl.dram.rank1.pwrStateTime::ACT_PDN            0                       # Time in different power states (Tick)
system.mem_ctrl.power_state.pwrStateResidencyTicks::UNDEFINED   5315346500                       # Cumulative time (in ticks) in various power states (Tick)
system.membus.transDist::ReadResp                5619                       # Transaction distribution (Count)
system.membus.transDist::WritebackDirty          1383                       # Transaction distribution (Count)
system.membus.transDist::CleanEvict              1310                       # Transaction distribution (Count)
system.membus.transDist::ReadExReq               1653                       # Transaction distribution (Count)
system.membus.transDist::ReadExResp              1653                       # Transaction distribution (Count)
system.membus.transDist::ReadSharedReq           5619                       # Transaction distribution (Count)
system.membus.pktCount_system.cpu.l2cache.mem_side_port::system.mem_ctrl.port        17237                       # Packet count per connected requestor and responder (Count)
system.membus.pktCount_system.cpu.l2cache.mem_side_port::total        17237                       # Packet count per connected requestor and responder (Count)
system.membus.pktCount::total                   17237                       # Packet count per connected requestor and responder (Count)
system.membus.pktSize_system.cpu.l2cache.mem_side_port::system.mem_ctrl.port       553920                       # Cumulative packet size per connected requestor and responder (Byte)
system.membus.pktSize_system.cpu.l2cache.mem_side_port::total       553920                       # Cumulative packet size per connected requestor and responder (Byte)
system.membus.pktSize::total                   553920                       # Cumulative packet size per connected requestor and responder (Byte)
system.membus.snoops                                0                       # Total snoops (Count)
system.membus.snoopTraffic                          0                       # Total snoop traffic (Byte)
system.membus.snoopFanout::samples               7272                       # Request fanout histogram (Count)
system.membus.snoopFanout::mean                     0                       # Request fanout histogram (Count)
system.membus.snoopFanout::stdev                    0                       # Request fanout histogram (Count)
system.membus.snoopFanout::underflows               0      0.00%      0.00% # Request fanout histogram (Count)
system.membus.snoopFanout::0                     7272    100.00%    100.00% # Request fanout histogram (Count)
system.membus.snoopFanout::1                        0      0.00%    100.00% # Request fanout histogram (Count)
system.membus.snoopFanout::overflows                0      0.00%    100.00% # Request fanout histogram (Count)
system.membus.snoopFanout::min_value                0                       # Request fanout histogram (Count)
system.membus.snoopFanout::max_value                0                       # Request fanout histogram (Count)
system.membus.snoopFanout::total                 7272                       # Request fanout histogram (Count)
system.membus.power_state.pwrStateResidencyTicks::UNDEFINED   5315346500                       # Cumulative time (in ticks) in various power states (Tick)
system.membus.reqLayer2.occupancy             7748500                       # Layer occupancy (ticks) (Tick)
system.membus.reqLayer2.utilization               0.0                       # Layer utilization (Ratio)
system.membus.respLayer0.occupancy           19470250                       # Layer occupancy (ticks) (Tick)
system.membus.respLayer0.utilization              0.0                       # Layer utilization (Ratio)
system.membus.snoop_filter.totRequests           9965                       # Total number of requests made to the snoop filter. (Count)
system.membus.snoop_filter.hitSingleRequests         2693                       # Number of requests hitting in the snoop filter with a single holder of the requested data. (Count)
system.membus.snoop_filter.hitMultiRequests            0                       # Number of requests hitting in the snoop filter with multiple (>1) holders of the requested data. (Count)
system.membus.snoop_filter.totSnoops                0                       # Total number of snoops made to the snoop filter. (Count)
system.membus.snoop_filter.hitSingleSnoops            0                       # Number of snoops hitting in the snoop filter with a single holder of the requested data. (Count)
system.membus.snoop_filter.hitMultiSnoops            0                       # Number of snoops hitting in the snoop filter with multiple (>1) holders of the requested data. (Count)
system.workload.inst.arm                            0                       # number of arm instructions executed (Count)
system.workload.inst.quiesce                        0                       # number of quiesce instructions executed (Count)

---------- End Simulation Statistics   ----------
