
---------- Begin Simulation Statistics ----------
simSeconds                                   0.005300                       # Number of seconds simulated (Second)
simTicks                                   5300083500                       # Number of ticks simulated (Tick)
finalTick                                  5300083500                       # Number of ticks from beginning of simulation (restored from checkpoints and never reset) (Tick)
simFreq                                  1000000000000                       # The number of ticks per simulated second ((Tick/Second))
hostSeconds                                    136.80                       # Real time elapsed on the host (Second)
hostTickRate                                 38742737                       # The number of ticks simulated per host second (ticks/s) ((Tick/Second))
hostMemory                                    1200552                       # Number of bytes of host memory used (Byte)
simInsts                                     19928450                       # Number of instructions simulated (Count)
simOps                                       35336477                       # Number of ops (including micro ops) simulated (Count)
hostInstRate                                   145674                       # Simulator instruction rate (inst/s) ((Count/Second))
hostOpRate                                     258304                       # Simulator op (including micro ops) rate (op/s) ((Count/Second))
system.clk_domain.clock                           500                       # Clock period in ticks (Tick)
system.clk_domain.voltage_domain.voltage            1                       # Voltage in Volts (Volt)
system.cpu.numCycles                         10600168                       # Number of cpu cycles simulated (Cycle)
system.cpu.numWorkItemsStarted                      0                       # Number of work items this cpu started (Count)
system.cpu.numWorkItemsCompleted                    0                       # Number of work items this cpu completed (Count)
system.cpu.instsAdded                        35856472                       # Number of instructions added to the IQ (excludes non-spec) (Count)
system.cpu.nonSpecInstsAdded                       37                       # Number of non-speculative instructions added to the IQ (Count)
system.cpu.instsIssued                       35716959                       # Number of instructions issued (Count)
system.cpu.squashedInstsIssued                   1327                       # Number of squashed instructions issued (Count)
system.cpu.squashedInstsExamined               520026                       # Number of squashed instructions iterated over during squash; mainly for profiling (Count)
system.cpu.squashedOperandsExamined            599681                       # Number of squashed operands that are examined and possibly removed from graph (Count)
system.cpu.squashedNonSpecRemoved                  19                       # Number of squashed non-spec instructions that were removed (Count)
system.cpu.numIssuedDist::samples            10505753                       # Number of insts issued each cycle (Count)
system.cpu.numIssuedDist::mean               3.399752                       # Number of insts issued each cycle (Count)
system.cpu.numIssuedDist::stdev              1.895909                       # Number of insts issued each cycle (Count)
system.cpu.numIssuedDist::underflows                0      0.00%      0.00% # Number of insts issued each cycle (Count)
system.cpu.numIssuedDist::0                    584652      5.57%      5.57% # Number of insts issued each cycle (Count)
system.cpu.numIssuedDist::1                   1226052     11.67%     17.24% # Number of insts issued each cycle (Count)
system.cpu.numIssuedDist::2                    845391      8.05%     25.28% # Number of insts issued each cycle (Count)
system.cpu.numIssuedDist::3                   3687042     35.10%     60.38% # Number of insts issued each cycle (Count)
system.cpu.numIssuedDist::4                   1800221     17.14%     77.51% # Number of insts issued each cycle (Count)
system.cpu.numIssuedDist::5                    891897      8.49%     86.00% # Number of insts issued each cycle (Count)
system.cpu.numIssuedDist::6                    733954      6.99%     92.99% # Number of insts issued each cycle (Count)
system.cpu.numIssuedDist::7                    217446      2.07%     95.06% # Number of insts issued each cycle (Count)
system.cpu.numIssuedDist::8                    519098      4.94%    100.00% # Number of insts issued each cycle (Count)
system.cpu.numIssuedDist::overflows                 0      0.00%    100.00% # Number of insts issued each cycle (Count)
system.cpu.numIssuedDist::min_value                 0                       # Number of insts issued each cycle (Count)
system.cpu.numIssuedDist::max_value                 8                       # Number of insts issued each cycle (Count)
system.cpu.numIssuedDist::total              10505753                       # Number of insts issued each cycle (Count)
system.cpu.statFuBusy::No_OpClass                   0      0.00%      0.00% # attempts to use FU when none available (Count)
system.cpu.statFuBusy::IntAlu                  575741     95.21%     95.21% # attempts to use FU when none available (Count)
system.cpu.statFuBusy::IntMult                      0      0.00%     95.21% # attempts to use FU when none available (Count)
system.cpu.statFuBusy::IntDiv                       0      0.00%     95.21% # attempts to use FU when none available (Count)
system.cpu.statFuBusy::FloatAdd                     0      0.00%     95.21% # attempts to use FU when none available (Count)
system.cpu.statFuBusy::FloatCmp                     0      0.00%     95.21% # attempts to use FU when none available (Count)
system.cpu.statFuBusy::FloatCvt                     0      0.00%     95.21% # attempts to use FU when none available (Count)
system.cpu.statFuBusy::FloatMult                    0      0.00%     95.21% # attempts to use FU when none available (Count)
system.cpu.statFuBusy::FloatMultAcc                 0      0.00%     95.21% # attempts to use FU when none available (Count)
system.cpu.statFuBusy::FloatDiv                     0      0.00%     95.21% # attempts to use FU when none available (Count)
system.cpu.statFuBusy::FloatMisc                    0      0.00%     95.21% # attempts to use FU when none available (Count)
system.cpu.statFuBusy::FloatSqrt                    0      0.00%     95.21% # attempts to use FU when none available (Count)
system.cpu.statFuBusy::SimdAdd                      0      0.00%     95.21% # attempts to use FU when none available (Count)
system.cpu.statFuBusy::SimdAddAcc                   0      0.00%     95.21% # attempts to use FU when none available (Count)
system.cpu.statFuBusy::SimdAlu                   1017      0.17%     95.38% # attempts to use FU when none available (Count)
system.cpu.statFuBusy::SimdCmp                      0      0.00%     95.38% # attempts to use FU when none available (Count)
system.cpu.statFuBusy::SimdCvt                     29      0.00%     95.39% # attempts to use FU when none available (Count)
system.cpu.statFuBusy::SimdMisc                     4      0.00%     95.39% # attempts to use FU when none available (Count)
system.cpu.statFuBusy::SimdMult                     0      0.00%     95.39% # attempts to use FU when none available (Count)
system.cpu.statFuBusy::SimdMultAcc                  0      0.00%     95.39% # attempts to use FU when none available (Count)
system.cpu.statFuBusy::SimdShift                    0      0.00%     95.39% # attempts to use FU when none available (Count)
system.cpu.statFuBusy::SimdShiftAcc                 0      0.00%     95.39% # attempts to use FU when none available (Count)
system.cpu.statFuBusy::SimdDiv                      0      0.00%     95.39% # attempts to use FU when none available (Count)
system.cpu.statFuBusy::SimdSqrt                     0      0.00%     95.39% # attempts to use FU when none available (Count)
system.cpu.statFuBusy::SimdFloatAdd                 0      0.00%     95.39% # attempts to use FU when none available (Count)
system.cpu.statFuBusy::SimdFloatAlu                 0      0.00%     95.39% # attempts to use FU when none available (Count)
system.cpu.statFuBusy::SimdFloatCmp                 0      0.00%     95.39% # attempts to use FU when none available (Count)
system.cpu.statFuBusy::SimdFloatCvt                 0      0.00%     95.39% # attempts to use FU when none available (Count)
system.cpu.statFuBusy::SimdFloatDiv                 0      0.00%     95.39% # attempts to use FU when none available (Count)
system.cpu.statFuBusy::SimdFloatMisc                0      0.00%     95.39% # attempts to use FU when none available (Count)
system.cpu.statFuBusy::SimdFloatMult                0      0.00%     95.39% # attempts to use FU when none available (Count)
system.cpu.statFuBusy::SimdFloatMultAcc             0      0.00%     95.39% # attempts to use FU when none available (Count)
system.cpu.statFuBusy::SimdFloatSqrt                0      0.00%     95.39% # attempts to use FU when none available (Count)
system.cpu.statFuBusy::SimdReduceAdd                0      0.00%     95.39% # attempts to use FU when none available (Count)
system.cpu.statFuBusy::SimdReduceAlu                0      0.00%     95.39% # attempts to use FU when none available (Count)
system.cpu.statFuBusy::SimdReduceCmp                0      0.00%     95.39% # attempts to use FU when none available (Count)
system.cpu.statFuBusy::SimdFloatReduceAdd            0      0.00%     95.39% # attempts to use FU when none available (Count)
system.cpu.statFuBusy::SimdFloatReduceCmp            0      0.00%     95.39% # attempts to use FU when none available (Count)
system.cpu.statFuBusy::SimdAes                      0      0.00%     95.39% # attempts to use FU when none available (Count)
system.cpu.statFuBusy::SimdAesMix                   0      0.00%     95.39% # attempts to use FU when none available (Count)
system.cpu.statFuBusy::SimdSha1Hash                 0      0.00%     95.39% # attempts to use FU when none available (Count)
system.cpu.statFuBusy::SimdSha1Hash2                0      0.00%     95.39% # attempts to use FU when none available (Count)
system.cpu.statFuBusy::SimdSha256Hash               0      0.00%     95.39% # attempts to use FU when none available (Count)
system.cpu.statFuBusy::SimdSha256Hash2              0      0.00%     95.39% # attempts to use FU when none available (Count)
system.cpu.statFuBusy::SimdShaSigma2                0      0.00%     95.39% # attempts to use FU when none available (Count)
system.cpu.statFuBusy::SimdShaSigma3                0      0.00%     95.39% # attempts to use FU when none available (Count)
system.cpu.statFuBusy::SimdPredAlu                  0      0.00%     95.39% # attempts to use FU when none available (Count)
system.cpu.statFuBusy::MemRead                  18596      3.08%     98.46% # attempts to use FU when none available (Count)
system.cpu.statFuBusy::MemWrite                  2415      0.40%     98.86% # attempts to use FU when none available (Count)
system.cpu.statFuBusy::FloatMemRead              1974      0.33%     99.19% # attempts to use FU when none available (Count)
system.cpu.statFuBusy::FloatMemWrite             4903      0.81%    100.00% # attempts to use FU when none available (Count)
system.cpu.statFuBusy::IprAccess                    0      0.00%    100.00% # attempts to use FU when none available (Count)
system.cpu.statFuBusy::InstPrefetch                 0      0.00%    100.00% # attempts to use FU when none available (Count)
system.cpu.statIssuedInstType_0::No_OpClass       593813      1.66%      1.66% # Number of instructions issued per FU type, per thread (Count)
system.cpu.statIssuedInstType_0::IntAlu      20321600     56.90%     58.56% # Number of instructions issued per FU type, per thread (Count)
system.cpu.statIssuedInstType_0::IntMult       517545      1.45%     60.01% # Number of instructions issued per FU type, per thread (Count)
system.cpu.statIssuedInstType_0::IntDiv         54226      0.15%     60.16% # Number of instructions issued per FU type, per thread (Count)
system.cpu.statIssuedInstType_0::FloatAdd      1517315      4.25%     64.41% # Number of instructions issued per FU type, per thread (Count)
system.cpu.statIssuedInstType_0::FloatCmp            0      0.00%     64.41% # Number of instructions issued per FU type, per thread (Count)
system.cpu.statIssuedInstType_0::FloatCvt           32      0.00%     64.41% # Number of instructions issued per FU type, per thread (Count)
system.cpu.statIssuedInstType_0::FloatMult            0      0.00%     64.41% # Number of instructions issued per FU type, per thread (Count)
system.cpu.statIssuedInstType_0::FloatMultAcc            0      0.00%     64.41% # Number of instructions issued per FU type, per thread (Count)
system.cpu.statIssuedInstType_0::FloatDiv            0      0.00%     64.41% # Number of instructions issued per FU type, per thread (Count)
system.cpu.statIssuedInstType_0::FloatMisc            0      0.00%     64.41% # Number of instructions issued per FU type, per thread (Count)
system.cpu.statIssuedInstType_0::FloatSqrt            0      0.00%     64.41% # Number of instructions issued per FU type, per thread (Count)
system.cpu.statIssuedInstType_0::SimdAdd          465      0.00%     64.41% # Number of instructions issued per FU type, per thread (Count)
system.cpu.statIssuedInstType_0::SimdAddAcc            0      0.00%     64.41% # Number of instructions issued per FU type, per thread (Count)
system.cpu.statIssuedInstType_0::SimdAlu        19184      0.05%     64.46% # Number of instructions issued per FU type, per thread (Count)
system.cpu.statIssuedInstType_0::SimdCmp            8      0.00%     64.46% # Number of instructions issued per FU type, per thread (Count)
system.cpu.statIssuedInstType_0::SimdCvt        11140      0.03%     64.49% # Number of instructions issued per FU type, per thread (Count)
system.cpu.statIssuedInstType_0::SimdMisc        24993      0.07%     64.56% # Number of instructions issued per FU type, per thread (Count)
system.cpu.statIssuedInstType_0::SimdMult            0      0.00%     64.56% # Number of instructions issued per FU type, per thread (Count)
system.cpu.statIssuedInstType_0::SimdMultAcc            0      0.00%     64.56% # Number of instructions issued per FU type, per thread (Count)
system.cpu.statIssuedInstType_0::SimdShift          332      0.00%     64.56% # Number of instructions issued per FU type, per thread (Count)
system.cpu.statIssuedInstType_0::SimdShiftAcc            0      0.00%     64.56% # Number of instructions issued per FU type, per thread (Count)
system.cpu.statIssuedInstType_0::SimdDiv            0      0.00%     64.56% # Number of instructions issued per FU type, per thread (Count)
system.cpu.statIssuedInstType_0::SimdSqrt            0      0.00%     64.56% # Number of instructions issued per FU type, per thread (Count)
system.cpu.statIssuedInstType_0::SimdFloatAdd            0      0.00%     64.56% # Number of instructions issued per FU type, per thread (Count)
system.cpu.statIssuedInstType_0::SimdFloatAlu            0      0.00%     64.56% # Number of instructions issued per FU type, per thread (Count)
system.cpu.statIssuedInstType_0::SimdFloatCmp            0      0.00%     64.56% # Number of instructions issued per FU type, per thread (Count)
system.cpu.statIssuedInstType_0::SimdFloatCvt       508521      1.42%     65.99% # Number of instructions issued per FU type, per thread (Count)
system.cpu.statIssuedInstType_0::SimdFloatDiv            0      0.00%     65.99% # Number of instructions issued per FU type, per thread (Count)
system.cpu.statIssuedInstType_0::SimdFloatMisc            0      0.00%     65.99% # Number of instructions issued per FU type, per thread (Count)
system.cpu.statIssuedInstType_0::SimdFloatMult            0      0.00%     65.99% # Number of instructions issued per FU type, per thread (Count)
system.cpu.statIssuedInstType_0::SimdFloatMultAcc            0      0.00%     65.99% # Number of instructions issued per FU type, per thread (Count)
system.cpu.statIssuedInstType_0::SimdFloatSqrt            0      0.00%     65.99% # Number of instructions issued per FU type, per thread (Count)
system.cpu.statIssuedInstType_0::SimdReduceAdd            0      0.00%     65.99% # Number of instructions issued per FU type, per thread (Count)
system.cpu.statIssuedInstType_0::SimdReduceAlu            0      0.00%     65.99% # Number of instructions issued per FU type, per thread (Count)
system.cpu.statIssuedInstType_0::SimdReduceCmp            0      0.00%     65.99% # Number of instructions issued per FU type, per thread (Count)
system.cpu.statIssuedInstType_0::SimdFloatReduceAdd            0      0.00%     65.99% # Number of instructions issued per FU type, per thread (Count)
system.cpu.statIssuedInstType_0::SimdFloatReduceCmp            0      0.00%     65.99% # Number of instructions issued per FU type, per thread (Count)
system.cpu.statIssuedInstType_0::SimdAes            0      0.00%     65.99% # Number of instructions issued per FU type, per thread (Count)
system.cpu.statIssuedInstType_0::SimdAesMix            0      0.00%     65.99% # Number of instructions issued per FU type, per thread (Count)
system.cpu.statIssuedInstType_0::SimdSha1Hash            0      0.00%     65.99% # Number of instructions issued per FU type, per thread (Count)
system.cpu.statIssuedInstType_0::SimdSha1Hash2            0      0.00%     65.99% # Number of instructions issued per FU type, per thread (Count)
system.cpu.statIssuedInstType_0::SimdSha256Hash            0      0.00%     65.99% # Number of instructions issued per FU type, per thread (Count)
system.cpu.statIssuedInstType_0::SimdSha256Hash2            0      0.00%     65.99% # Number of instructions issued per FU type, per thread (Count)
system.cpu.statIssuedInstType_0::SimdShaSigma2            0      0.00%     65.99% # Number of instructions issued per FU type, per thread (Count)
system.cpu.statIssuedInstType_0::SimdShaSigma3            0      0.00%     65.99% # Number of instructions issued per FU type, per thread (Count)
system.cpu.statIssuedInstType_0::SimdPredAlu            0      0.00%     65.99% # Number of instructions issued per FU type, per thread (Count)
system.cpu.statIssuedInstType_0::MemRead      5993282     16.78%     82.77% # Number of instructions issued per FU type, per thread (Count)
system.cpu.statIssuedInstType_0::MemWrite      3074855      8.61%     91.38% # Number of instructions issued per FU type, per thread (Count)
system.cpu.statIssuedInstType_0::FloatMemRead      2047180      5.73%     97.11% # Number of instructions issued per FU type, per thread (Count)
system.cpu.statIssuedInstType_0::FloatMemWrite      1032468      2.89%    100.00% # Number of instructions issued per FU type, per thread (Count)
system.cpu.statIssuedInstType_0::IprAccess            0      0.00%    100.00% # Number of instructions issued per FU type, per thread (Count)
system.cpu.statIssuedInstType_0::InstPrefetch            0      0.00%    100.00% # Number of instructions issued per FU type, per thread (Count)
system.cpu.statIssuedInstType_0::total       35716959                       # Number of instructions issued per FU type, per thread (Count)
system.cpu.issueRate                         3.369471                       # Inst issue rate ((Count/Cycle))
system.cpu.fuBusy                              604679                       # FU busy when requested (Count)
system.cpu.fuBusyRate                        0.016930                       # FU busy rate (busy events/executed inst) ((Count/Count))
system.cpu.intInstQueueReads                 72197799                       # Number of integer instruction queue reads (Count)
system.cpu.intInstQueueWrites                31190753                       # Number of integer instruction queue writes (Count)
system.cpu.intInstQueueWakeupAccesses        30499439                       # Number of integer instruction queue wakeup accesses (Count)
system.cpu.fpInstQueueReads                  10347878                       # Number of floating instruction queue reads (Count)
system.cpu.fpInstQueueWrites                  5186284                       # Number of floating instruction queue writes (Count)
system.cpu.fpInstQueueWakeupAccesses          5160348                       # Number of floating instruction queue wakeup accesses (Count)
system.cpu.vecInstQueueReads                        0                       # Number of vector instruction queue reads (Count)
system.cpu.vecInstQueueWrites                       0                       # Number of vector instruction queue writes (Count)
system.cpu.vecInstQueueWakeupAccesses               0                       # Number of vector instruction queue wakeup accesses (Count)
system.cpu.intAluAccesses                    30549936                       # Number of integer alu accesses (Count)
system.cpu.fpAluAccesses                      5177889                       # Number of floating point alu accesses (Count)
system.cpu.vecAluAccesses                           0                       # Number of vector alu accesses (Count)
system.cpu.numInsts                          35684571                       # Number of executed instructions (Count)
system.cpu.numLoadInsts                       8036097                       # Number of load instructions executed (Count)
system.cpu.numSquashedInsts                     32388                       # Number of squashed instructions skipped in execute (Count)
system.cpu.numSwp                                   0                       # Number of swp insts executed (Count)
system.cpu.numNop                                   0                       # Number of nop insts executed (Count)
system.cpu.numRefs                           12139498                       # Number of memory reference insts executed (Count)
system.cpu.numBranches                        3313034                       # Number of branches executed (Count)
system.cpu.numStoreInsts                      4103401                       # Number of stores executed (Count)
system.cpu.numRate                           3.366416                       # Inst execution rate ((Count/Cycle))
system.cpu.timesIdled                             911                       # Number of times that the entire CPU went into an idle state and unscheduled itself (Count)
system.cpu.idleCycles                           94415                       # Total number of cycles that the CPU has spent unscheduled due to idling (Cycle)
system.cpu.committedInsts                    19928450                       # Number of Instructions Simulated (Count)
system.cpu.committedOps                      35336477                       # Number of Ops (including micro ops) Simulated (Count)
system.cpu.cpi                               0.531911                       # CPI: Cycles Per Instruction ((Cycle/Count))
system.cpu.totalCpi                          0.531911                       # CPI: Total CPI of All Threads ((Cycle/Count))
system.cpu.ipc                               1.880013                       # IPC: Instructions Per Cycle ((Count/Cycle))
system.cpu.totalIpc                          1.880013                       # IPC: Total IPC of All Threads ((Count/Cycle))
system.cpu.intRegfileReads                   55757068                       # Number of integer regfile reads (Count)
system.cpu.intRegfileWrites                  24156019                       # Number of integer regfile writes (Count)
system.cpu.fpRegfileReads                     2181004                       # Number of floating regfile reads (Count)
system.cpu.fpRegfileWrites                    3610995                       # Number of floating regfile writes (Count)
system.cpu.ccRegfileReads                    10404296                       # number of cc regfile reads (Count)
system.cpu.ccRegfileWrites                    5890192                       # number of cc regfile writes (Count)
system.cpu.miscRegfileReads                  18229316                       # number of misc regfile reads (Count)
system.cpu.miscRegfileWrites                       18                       # number of misc regfile writes (Count)
system.cpu.MemDepUnit__0.insertedLoads        8056590                       # Number of loads inserted to the mem dependence unit. (Count)
system.cpu.MemDepUnit__0.insertedStores       4112883                       # Number of stores inserted to the mem dependence unit. (Count)
system.cpu.MemDepUnit__0.conflictingLoads      2573312                       # Number of conflicting loads. (Count)
system.cpu.MemDepUnit__0.conflictingStores       549808                       # Number of conflicting stores. (Count)
system.cpu.MemDepUnit__1.insertedLoads              0                       # Number of loads inserted to the mem dependence unit. (Count)
system.cpu.MemDepUnit__1.insertedStores             0                       # Number of stores inserted to the mem dependence unit. (Count)
system.cpu.MemDepUnit__1.conflictingLoads            0                       # Number of conflicting loads. (Count)
system.cpu.MemDepUnit__1.conflictingStores            0                       # Number of conflicting stores. (Count)
system.cpu.MemDepUnit__2.insertedLoads              0                       # Number of loads inserted to the mem dependence unit. (Count)
system.cpu.MemDepUnit__2.insertedStores             0                       # Number of stores inserted to the mem dependence unit. (Count)
system.cpu.MemDepUnit__2.conflictingLoads            0                       # Number of conflicting loads. (Count)
system.cpu.MemDepUnit__2.conflictingStores            0                       # Number of conflicting stores. (Count)
system.cpu.MemDepUnit__3.insertedLoads              0                       # Number of loads inserted to the mem dependence unit. (Count)
system.cpu.MemDepUnit__3.insertedStores             0                       # Number of stores inserted to the mem dependence unit. (Count)
system.cpu.MemDepUnit__3.conflictingLoads            0                       # Number of conflicting loads. (Count)
system.cpu.MemDepUnit__3.conflictingStores            0                       # Number of conflicting stores. (Count)
system.cpu.branchPred.lookups                 3380360                       # Number of BP lookups (Count)
system.cpu.branchPred.condPredicted           1645366                       # Number of conditional branches predicted (Count)
system.cpu.branchPred.condIncorrect             14887                       # Number of conditional branches incorrect (Count)
system.cpu.branchPred.BTBLookups              1381655                       # Number of BTB lookups (Count)
system.cpu.branchPred.BTBHits                 1377495                       # Number of BTB hits (Count)
system.cpu.branchPred.BTBHitRatio            0.996989                       # BTB Hit Ratio (Ratio)
system.cpu.branchPred.RASUsed                  572608                       # Number of times the RAS was used to get a target. (Count)
system.cpu.branchPred.RASIncorrect                992                       # Number of incorrect RAS predictions. (Count)
system.cpu.branchPred.indirectLookups          531136                       # Number of indirect predictor lookups. (Count)
system.cpu.branchPred.indirectHits             529733                       # Number of indirect target hits. (Count)
system.cpu.branchPred.indirectMisses             1403                       # Number of indirect misses. (Count)
system.cpu.branchPred.indirectMispredicted          308                       # Number of mispredicted indirect branches. (Count)
system.cpu.commit.commitSquashedInsts          487754                       # The number of squashed insts skipped by commit (Count)
system.cpu.commit.commitNonSpecStalls              18                       # The number of times commit has been forced to stall to communicate backwards (Count)
system.cpu.commit.branchMispredicts             13487                       # The number of times a branch was mispredicted (Count)
system.cpu.commit.numCommittedDist::samples     10435206                       # Number of insts commited each cycle (Count)
system.cpu.commit.numCommittedDist::mean     3.386275                       # Number of insts commited each cycle (Count)
system.cpu.commit.numCommittedDist::stdev     3.099412                       # Number of insts commited each cycle (Count)
system.cpu.commit.numCommittedDist::underflows            0      0.00%      0.00% # Number of insts commited each cycle (Count)
system.cpu.commit.numCommittedDist::0         2709781     25.97%     25.97% # Number of insts commited each cycle (Count)
system.cpu.commit.numCommittedDist::1          804213      7.71%     33.67% # Number of insts commited each cycle (Count)
system.cpu.commit.numCommittedDist::2         1805317     17.30%     50.97% # Number of insts commited each cycle (Count)
system.cpu.commit.numCommittedDist::3         1328783     12.73%     63.71% # Number of insts commited each cycle (Count)
system.cpu.commit.numCommittedDist::4          604042      5.79%     69.50% # Number of insts commited each cycle (Count)
system.cpu.commit.numCommittedDist::5           98106      0.94%     70.44% # Number of insts commited each cycle (Count)
system.cpu.commit.numCommittedDist::6           65364      0.63%     71.06% # Number of insts commited each cycle (Count)
system.cpu.commit.numCommittedDist::7          520401      4.99%     76.05% # Number of insts commited each cycle (Count)
system.cpu.commit.numCommittedDist::8         2499199     23.95%    100.00% # Number of insts commited each cycle (Count)
system.cpu.commit.numCommittedDist::overflows            0      0.00%    100.00% # Number of insts commited each cycle (Count)
system.cpu.commit.numCommittedDist::min_value            0                       # Number of insts commited each cycle (Count)
system.cpu.commit.numCommittedDist::max_value            8                       # Number of insts commited each cycle (Count)
system.cpu.commit.numCommittedDist::total     10435206                       # Number of insts commited each cycle (Count)
system.cpu.commit.instsCommitted             19928450                       # Number of instructions committed (Count)
system.cpu.commit.opsCommitted               35336477                       # Number of ops (including micro ops) committed (Count)
system.cpu.commit.memRefs                    12069539                       # Number of memory references committed (Count)
system.cpu.commit.loads                       7978510                       # Number of loads committed (Count)
system.cpu.commit.amos                              0                       # Number of atomic instructions committed (Count)
system.cpu.commit.membars                           0                       # Number of memory barriers committed (Count)
system.cpu.commit.branches                    3283692                       # Number of branches committed (Count)
system.cpu.commit.vectorInstructions                0                       # Number of committed Vector instructions. (Count)
system.cpu.commit.floating                    5154398                       # Number of committed floating point instructions. (Count)
system.cpu.commit.integer                    32657360                       # Number of committed integer instructions. (Count)
system.cpu.commit.functionCalls                563369                       # Number of function calls committed. (Count)
system.cpu.commit.committedInstType_0::No_OpClass       589130      1.67%      1.67% # Class of committed instruction (Count)
system.cpu.commit.committedInstType_0::IntAlu     20030633     56.69%     58.35% # Class of committed instruction (Count)
system.cpu.commit.committedInstType_0::IntMult       516165      1.46%     59.81% # Class of committed instruction (Count)
system.cpu.commit.committedInstType_0::IntDiv        53994      0.15%     59.97% # Class of committed instruction (Count)
system.cpu.commit.committedInstType_0::FloatAdd      1513865      4.28%     64.25% # Class of committed instruction (Count)
system.cpu.commit.committedInstType_0::FloatCmp            0      0.00%     64.25% # Class of committed instruction (Count)
system.cpu.commit.committedInstType_0::FloatCvt           32      0.00%     64.25% # Class of committed instruction (Count)
system.cpu.commit.committedInstType_0::FloatMult            0      0.00%     64.25% # Class of committed instruction (Count)
system.cpu.commit.committedInstType_0::FloatMultAcc            0      0.00%     64.25% # Class of committed instruction (Count)
system.cpu.commit.committedInstType_0::FloatDiv            0      0.00%     64.25% # Class of committed instruction (Count)
system.cpu.commit.committedInstType_0::FloatMisc            0      0.00%     64.25% # Class of committed instruction (Count)
system.cpu.commit.committedInstType_0::FloatSqrt            0      0.00%     64.25% # Class of committed instruction (Count)
system.cpu.commit.committedInstType_0::SimdAdd          326      0.00%     64.25% # Class of committed instruction (Count)
system.cpu.commit.committedInstType_0::SimdAddAcc            0      0.00%     64.25% # Class of committed instruction (Count)
system.cpu.commit.committedInstType_0::SimdAlu        18662      0.05%     64.30% # Class of committed instruction (Count)
system.cpu.commit.committedInstType_0::SimdCmp            6      0.00%     64.30% # Class of committed instruction (Count)
system.cpu.commit.committedInstType_0::SimdCvt        10720      0.03%     64.33% # Class of committed instruction (Count)
system.cpu.commit.committedInstType_0::SimdMisc        24821      0.07%     64.40% # Class of committed instruction (Count)
system.cpu.commit.committedInstType_0::SimdMult            0      0.00%     64.40% # Class of committed instruction (Count)
system.cpu.commit.committedInstType_0::SimdMultAcc            0      0.00%     64.40% # Class of committed instruction (Count)
system.cpu.commit.committedInstType_0::SimdShift           90      0.00%     64.40% # Class of committed instruction (Count)
system.cpu.commit.committedInstType_0::SimdShiftAcc            0      0.00%     64.40% # Class of committed instruction (Count)
system.cpu.commit.committedInstType_0::SimdDiv            0      0.00%     64.40% # Class of committed instruction (Count)
system.cpu.commit.committedInstType_0::SimdSqrt            0      0.00%     64.40% # Class of committed instruction (Count)
system.cpu.commit.committedInstType_0::SimdFloatAdd            0      0.00%     64.40% # Class of committed instruction (Count)
system.cpu.commit.committedInstType_0::SimdFloatAlu            0      0.00%     64.40% # Class of committed instruction (Count)
system.cpu.commit.committedInstType_0::SimdFloatCmp            0      0.00%     64.40% # Class of committed instruction (Count)
system.cpu.commit.committedInstType_0::SimdFloatCvt       508494      1.44%     65.84% # Class of committed instruction (Count)
system.cpu.commit.committedInstType_0::SimdFloatDiv            0      0.00%     65.84% # Class of committed instruction (Count)
system.cpu.commit.committedInstType_0::SimdFloatMisc            0      0.00%     65.84% # Class of committed instruction (Count)
system.cpu.commit.committedInstType_0::SimdFloatMult            0      0.00%     65.84% # Class of committed instruction (Count)
system.cpu.commit.committedInstType_0::SimdFloatMultAcc            0      0.00%     65.84% # Class of committed instruction (Count)
system.cpu.commit.committedInstType_0::SimdFloatSqrt            0      0.00%     65.84% # Class of committed instruction (Count)
system.cpu.commit.committedInstType_0::SimdReduceAdd            0      0.00%     65.84% # Class of committed instruction (Count)
system.cpu.commit.committedInstType_0::SimdReduceAlu            0      0.00%     65.84% # Class of committed instruction (Count)
system.cpu.commit.committedInstType_0::SimdReduceCmp            0      0.00%     65.84% # Class of committed instruction (Count)
system.cpu.commit.committedInstType_0::SimdFloatReduceAdd            0      0.00%     65.84% # Class of committed instruction (Count)
system.cpu.commit.committedInstType_0::SimdFloatReduceCmp            0      0.00%     65.84% # Class of committed instruction (Count)
system.cpu.commit.committedInstType_0::SimdAes            0      0.00%     65.84% # Class of committed instruction (Count)
system.cpu.commit.committedInstType_0::SimdAesMix            0      0.00%     65.84% # Class of committed instruction (Count)
system.cpu.commit.committedInstType_0::SimdSha1Hash            0      0.00%     65.84% # Class of committed instruction (Count)
system.cpu.commit.committedInstType_0::SimdSha1Hash2            0      0.00%     65.84% # Class of committed instruction (Count)
system.cpu.commit.committedInstType_0::SimdSha256Hash            0      0.00%     65.84% # Class of committed instruction (Count)
system.cpu.commit.committedInstType_0::SimdSha256Hash2            0      0.00%     65.84% # Class of committed instruction (Count)
system.cpu.commit.committedInstType_0::SimdShaSigma2            0      0.00%     65.84% # Class of committed instruction (Count)
system.cpu.commit.committedInstType_0::SimdShaSigma3            0      0.00%     65.84% # Class of committed instruction (Count)
system.cpu.commit.committedInstType_0::SimdPredAlu            0      0.00%     65.84% # Class of committed instruction (Count)
system.cpu.commit.committedInstType_0::MemRead      5941599     16.81%     82.66% # Class of committed instruction (Count)
system.cpu.commit.committedInstType_0::MemWrite      3058838      8.66%     91.31% # Class of committed instruction (Count)
system.cpu.commit.committedInstType_0::FloatMemRead      2036911      5.76%     97.08% # Class of committed instruction (Count)
system.cpu.commit.committedInstType_0::FloatMemWrite      1032191      2.92%    100.00% # Class of committed instruction (Count)
system.cpu.commit.committedInstType_0::IprAccess            0      0.00%    100.00% # Class of committed instruction (Count)
system.cpu.commit.committedInstType_0::InstPrefetch            0      0.00%    100.00% # Class of committed instruction (Count)
system.cpu.commit.committedInstType_0::total     35336477                       # Class of committed instruction (Count)
system.cpu.commit.commitEligibleSamples       2499199                       # number cycles where commit BW limit reached (Cycle)
system.cpu.dcache.demandHits::cpu.data        7874781                       # number of demand (read+write) hits (Count)
system.cpu.dcache.demandHits::total           7874781                       # number of demand (read+write) hits (Count)
system.cpu.dcache.overallHits::cpu.data       7874781                       # number of overall hits (Count)
system.cpu.dcache.overallHits::total          7874781                       # number of overall hits (Count)
system.cpu.dcache.demandMisses::cpu.data        26904                       # number of demand (read+write) misses (Count)
system.cpu.dcache.demandMisses::total           26904                       # number of demand (read+write) misses (Count)
system.cpu.dcache.overallMisses::cpu.data        26904                       # number of overall misses (Count)
system.cpu.dcache.overallMisses::total          26904                       # number of overall misses (Count)
system.cpu.dcache.demandMissLatency::cpu.data   1108092000                       # number of demand (read+write) miss ticks (Tick)
system.cpu.dcache.demandMissLatency::total   1108092000                       # number of demand (read+write) miss ticks (Tick)
system.cpu.dcache.overallMissLatency::cpu.data   1108092000                       # number of overall miss ticks (Tick)
system.cpu.dcache.overallMissLatency::total   1108092000                       # number of overall miss ticks (Tick)
system.cpu.dcache.demandAccesses::cpu.data      7901685                       # number of demand (read+write) accesses (Count)
system.cpu.dcache.demandAccesses::total       7901685                       # number of demand (read+write) accesses (Count)
system.cpu.dcache.overallAccesses::cpu.data      7901685                       # number of overall (read+write) accesses (Count)
system.cpu.dcache.overallAccesses::total      7901685                       # number of overall (read+write) accesses (Count)
system.cpu.dcache.demandMissRate::cpu.data     0.003405                       # miss rate for demand accesses (Ratio)
system.cpu.dcache.demandMissRate::total      0.003405                       # miss rate for demand accesses (Ratio)
system.cpu.dcache.overallMissRate::cpu.data     0.003405                       # miss rate for overall accesses (Ratio)
system.cpu.dcache.overallMissRate::total     0.003405                       # miss rate for overall accesses (Ratio)
system.cpu.dcache.demandAvgMissLatency::cpu.data 41186.886708                       # average overall miss latency ((Cycle/Count))
system.cpu.dcache.demandAvgMissLatency::total 41186.886708                       # average overall miss latency ((Cycle/Count))
system.cpu.dcache.overallAvgMissLatency::cpu.data 41186.886708                       # average overall miss latency ((Cycle/Count))
system.cpu.dcache.overallAvgMissLatency::total 41186.886708                       # average overall miss latency ((Cycle/Count))
system.cpu.dcache.blockedCycles::no_mshrs        15476                       # number of cycles access was blocked (Cycle)
system.cpu.dcache.blockedCycles::no_targets            0                       # number of cycles access was blocked (Cycle)
system.cpu.dcache.blockedCauses::no_mshrs          298                       # number of times access was blocked (Count)
system.cpu.dcache.blockedCauses::no_targets            0                       # number of times access was blocked (Count)
system.cpu.dcache.avgBlocked::no_mshrs      51.932886                       # average number of cycles each access was blocked ((Cycle/Count))
system.cpu.dcache.avgBlocked::no_targets          nan                       # average number of cycles each access was blocked ((Cycle/Count))
system.cpu.dcache.writebacks::writebacks         5750                       # number of writebacks (Count)
system.cpu.dcache.writebacks::total              5750                       # number of writebacks (Count)
system.cpu.dcache.demandMshrHits::cpu.data        18517                       # number of demand (read+write) MSHR hits (Count)
system.cpu.dcache.demandMshrHits::total         18517                       # number of demand (read+write) MSHR hits (Count)
system.cpu.dcache.overallMshrHits::cpu.data        18517                       # number of overall MSHR hits (Count)
system.cpu.dcache.overallMshrHits::total        18517                       # number of overall MSHR hits (Count)
system.cpu.dcache.demandMshrMisses::cpu.data         8387                       # number of demand (read+write) MSHR misses (Count)
system.cpu.dcache.demandMshrMisses::total         8387                       # number of demand (read+write) MSHR misses (Count)
system.cpu.dcache.overallMshrMisses::cpu.data         8387                       # number of overall MSHR misses (Count)
system.cpu.dcache.overallMshrMisses::total         8387                       # number of overall MSHR misses (Count)
system.cpu.dcache.demandMshrMissLatency::cpu.data    464625500                       # number of demand (read+write) MSHR miss ticks (Tick)
system.cpu.dcache.demandMshrMissLatency::total    464625500                       # number of demand (read+write) MSHR miss ticks (Tick)
system.cpu.dcache.overallMshrMissLatency::cpu.data    464625500                       # number of overall MSHR miss ticks (Tick)
system.cpu.dcache.overallMshrMissLatency::total    464625500                       # number of overall MSHR miss ticks (Tick)
system.cpu.dcache.demandMshrMissRate::cpu.data     0.001061                       # mshr miss ratio for demand accesses (Ratio)
system.cpu.dcache.demandMshrMissRate::total     0.001061                       # mshr miss ratio for demand accesses (Ratio)
system.cpu.dcache.overallMshrMissRate::cpu.data     0.001061                       # mshr miss ratio for overall accesses (Ratio)
system.cpu.dcache.overallMshrMissRate::total     0.001061                       # mshr miss ratio for overall accesses (Ratio)
system.cpu.dcache.demandAvgMshrMissLatency::cpu.data 55398.294980                       # average overall mshr miss latency ((Cycle/Count))
system.cpu.dcache.demandAvgMshrMissLatency::total 55398.294980                       # average overall mshr miss latency ((Cycle/Count))
system.cpu.dcache.overallAvgMshrMissLatency::cpu.data 55398.294980                       # average overall mshr miss latency ((Cycle/Count))
system.cpu.dcache.overallAvgMshrMissLatency::total 55398.294980                       # average overall mshr miss latency ((Cycle/Count))
system.cpu.dcache.replacements                   7363                       # number of replacements (Count)
system.cpu.dcache.ReadReq.hits::cpu.data      3786423                       # number of ReadReq hits (Count)
system.cpu.dcache.ReadReq.hits::total         3786423                       # number of ReadReq hits (Count)
system.cpu.dcache.ReadReq.misses::cpu.data        24233                       # number of ReadReq misses (Count)
system.cpu.dcache.ReadReq.misses::total         24233                       # number of ReadReq misses (Count)
system.cpu.dcache.ReadReq.missLatency::cpu.data    973681500                       # number of ReadReq miss ticks (Tick)
system.cpu.dcache.ReadReq.missLatency::total    973681500                       # number of ReadReq miss ticks (Tick)
system.cpu.dcache.ReadReq.accesses::cpu.data      3810656                       # number of ReadReq accesses(hits+misses) (Count)
system.cpu.dcache.ReadReq.accesses::total      3810656                       # number of ReadReq accesses(hits+misses) (Count)
system.cpu.dcache.ReadReq.missRate::cpu.data     0.006359                       # miss rate for ReadReq accesses (Ratio)
system.cpu.dcache.ReadReq.missRate::total     0.006359                       # miss rate for ReadReq accesses (Ratio)
system.cpu.dcache.ReadReq.avgMissLatency::cpu.data 40179.981843                       # average ReadReq miss latency ((Tick/Count))
system.cpu.dcache.ReadReq.avgMissLatency::total 40179.981843                       # average ReadReq miss latency ((Tick/Count))
system.cpu.dcache.ReadReq.mshrHits::cpu.data        17536                       # number of ReadReq MSHR hits (Count)
system.cpu.dcache.ReadReq.mshrHits::total        17536                       # number of ReadReq MSHR hits (Count)
system.cpu.dcache.ReadReq.mshrMisses::cpu.data         6697                       # number of ReadReq MSHR misses (Count)
system.cpu.dcache.ReadReq.mshrMisses::total         6697                       # number of ReadReq MSHR misses (Count)
system.cpu.dcache.ReadReq.mshrMissLatency::cpu.data    338837000                       # number of ReadReq MSHR miss ticks (Tick)
system.cpu.dcache.ReadReq.mshrMissLatency::total    338837000                       # number of ReadReq MSHR miss ticks (Tick)
system.cpu.dcache.ReadReq.mshrMissRate::cpu.data     0.001757                       # mshr miss rate for ReadReq accesses (Ratio)
system.cpu.dcache.ReadReq.mshrMissRate::total     0.001757                       # mshr miss rate for ReadReq accesses (Ratio)
system.cpu.dcache.ReadReq.avgMshrMissLatency::cpu.data 50595.341198                       # average ReadReq mshr miss latency ((Tick/Count))
system.cpu.dcache.ReadReq.avgMshrMissLatency::total 50595.341198                       # average ReadReq mshr miss latency ((Tick/Count))
system.cpu.dcache.WriteReq.hits::cpu.data      4088358                       # number of WriteReq hits (Count)
system.cpu.dcache.WriteReq.hits::total        4088358                       # number of WriteReq hits (Count)
system.cpu.dcache.WriteReq.misses::cpu.data         2671                       # number of WriteReq misses (Count)
system.cpu.dcache.WriteReq.misses::total         2671                       # number of WriteReq misses (Count)
system.cpu.dcache.WriteReq.missLatency::cpu.data    134410500                       # number of WriteReq miss ticks (Tick)
system.cpu.dcache.WriteReq.missLatency::total    134410500                       # number of WriteReq miss ticks (Tick)
system.cpu.dcache.WriteReq.accesses::cpu.data      4091029                       # number of WriteReq accesses(hits+misses) (Count)
system.cpu.dcache.WriteReq.accesses::total      4091029                       # number of WriteReq accesses(hits+misses) (Count)
system.cpu.dcache.WriteReq.missRate::cpu.data     0.000653                       # miss rate for WriteReq accesses (Ratio)
system.cpu.dcache.WriteReq.missRate::total     0.000653                       # miss rate for WriteReq accesses (Ratio)
system.cpu.dcache.WriteReq.avgMissLatency::cpu.data 50322.163984                       # average WriteReq miss latency ((Tick/Count))
system.cpu.dcache.WriteReq.avgMissLatency::total 50322.163984                       # average WriteReq miss latency ((Tick/Count))
system.cpu.dcache.WriteReq.mshrHits::cpu.data          981                       # number of WriteReq MSHR hits (Count)
system.cpu.dcache.WriteReq.mshrHits::total          981                       # number of WriteReq MSHR hits (Count)
system.cpu.dcache.WriteReq.mshrMisses::cpu.data         1690                       # number of WriteReq MSHR misses (Count)
system.cpu.dcache.WriteReq.mshrMisses::total         1690                       # number of WriteReq MSHR misses (Count)
system.cpu.dcache.WriteReq.mshrMissLatency::cpu.data    125788500                       # number of WriteReq MSHR miss ticks (Tick)
system.cpu.dcache.WriteReq.mshrMissLatency::total    125788500                       # number of WriteReq MSHR miss ticks (Tick)
system.cpu.dcache.WriteReq.mshrMissRate::cpu.data     0.000413                       # mshr miss rate for WriteReq accesses (Ratio)
system.cpu.dcache.WriteReq.mshrMissRate::total     0.000413                       # mshr miss rate for WriteReq accesses (Ratio)
system.cpu.dcache.WriteReq.avgMshrMissLatency::cpu.data 74431.065089                       # average WriteReq mshr miss latency ((Tick/Count))
system.cpu.dcache.WriteReq.avgMshrMissLatency::total 74431.065089                       # average WriteReq mshr miss latency ((Tick/Count))
system.cpu.dcache.power_state.pwrStateResidencyTicks::UNDEFINED   5300083500                       # Cumulative time (in ticks) in various power states (Tick)
system.cpu.dcache.tags.tagsInUse          1015.355665                       # Average ticks per tags in use ((Tick/Count))
system.cpu.dcache.tags.totalRefs              7883168                       # Total number of references to valid blocks. (Count)
system.cpu.dcache.tags.sampledRefs               8387                       # Sample count of references to valid blocks. (Count)
system.cpu.dcache.tags.avgRefs             939.927030                       # Average number of references to valid blocks. ((Count/Count))
system.cpu.dcache.tags.warmupTick              168000                       # The tick when the warmup percentage was hit. (Tick)
system.cpu.dcache.tags.occupancies::cpu.data  1015.355665                       # Average occupied blocks per tick, per requestor ((Count/Tick))
system.cpu.dcache.tags.avgOccs::cpu.data     0.991558                       # Average percentage of cache occupancy ((Ratio/Tick))
system.cpu.dcache.tags.avgOccs::total        0.991558                       # Average percentage of cache occupancy ((Ratio/Tick))
system.cpu.dcache.tags.occupanciesTaskId::1024         1024                       # Occupied blocks per task id (Count)
system.cpu.dcache.tags.ageTaskId_1024::0           45                       # Occupied blocks per task id, per block age (Count)
system.cpu.dcache.tags.ageTaskId_1024::1           13                       # Occupied blocks per task id, per block age (Count)
system.cpu.dcache.tags.ageTaskId_1024::2          965                       # Occupied blocks per task id, per block age (Count)
system.cpu.dcache.tags.ageTaskId_1024::3            1                       # Occupied blocks per task id, per block age (Count)
system.cpu.dcache.tags.ratioOccsTaskId::1024            1                       # Ratio of occupied blocks and all blocks, per task id (Ratio)
system.cpu.dcache.tags.tagAccesses           63221867                       # Number of tag accesses (Count)
system.cpu.dcache.tags.dataAccesses          63221867                       # Number of data accesses (Count)
system.cpu.dcache.tags.power_state.pwrStateResidencyTicks::UNDEFINED   5300083500                       # Cumulative time (in ticks) in various power states (Tick)
system.cpu.decode.idleCycles                  3643894                       # Number of cycles decode is idle (Cycle)
system.cpu.decode.blockedCycles                551902                       # Number of cycles decode is blocked (Cycle)
system.cpu.decode.runCycles                   6213746                       # Number of cycles decode is running (Cycle)
system.cpu.decode.unblockCycles                 81159                       # Number of cycles decode is unblocking (Cycle)
system.cpu.decode.squashCycles                  15052                       # Number of cycles decode is squashing (Cycle)
system.cpu.decode.branchResolved              1373765                       # Number of times decode resolved a branch (Count)
system.cpu.decode.branchMispred                  1611                       # Number of times decode detected a branch misprediction (Count)
system.cpu.decode.decodedInsts               36035479                       # Number of instructions handled by decode (Count)
system.cpu.decode.squashedInsts                  3839                       # Number of squashed instructions handled by decode (Count)
system.cpu.fetch.icacheStallCycles            3708813                       # Number of cycles fetch is stalled on an Icache miss (Cycle)
system.cpu.fetch.insts                       20357135                       # Number of instructions fetch has processed (Count)
system.cpu.fetch.branches                     3380360                       # Number of branches that fetch encountered (Count)
system.cpu.fetch.predictedBranches            2479836                       # Number of branches that fetch has predicted taken (Count)
system.cpu.fetch.cycles                       6778189                       # Number of cycles fetch has run and was not squashing or blocked (Cycle)
system.cpu.fetch.squashCycles                   33310                       # Number of cycles fetch has spent squashing (Cycle)
system.cpu.fetch.miscStallCycles                  229                       # Number of cycles fetch has spent waiting on interrupts, or bad addresses, or out of MSHRs (Cycle)
system.cpu.fetch.pendingTrapStallCycles          1721                       # Number of stall cycles due to pending traps (Cycle)
system.cpu.fetch.pendingQuiesceStallCycles          140                       # Number of stall cycles due to pending quiesce instructions (Cycle)
system.cpu.fetch.icacheWaitRetryStallCycles            6                       # Number of stall cycles due to full MSHR (Cycle)
system.cpu.fetch.cacheLines                   3659532                       # Number of cache lines fetched (Count)
system.cpu.fetch.icacheSquashes                  5514                       # Number of outstanding Icache misses that were squashed (Count)
system.cpu.fetch.nisnDist::samples           10505753                       # Number of instructions fetched each cycle (Total) (Count)
system.cpu.fetch.nisnDist::mean              3.440682                       # Number of instructions fetched each cycle (Total) (Count)
system.cpu.fetch.nisnDist::stdev             3.482166                       # Number of instructions fetched each cycle (Total) (Count)
system.cpu.fetch.nisnDist::underflows               0      0.00%      0.00% # Number of instructions fetched each cycle (Total) (Count)
system.cpu.fetch.nisnDist::0                  4135395     39.36%     39.36% # Number of instructions fetched each cycle (Total) (Count)
system.cpu.fetch.nisnDist::1                  1087620     10.35%     49.72% # Number of instructions fetched each cycle (Total) (Count)
system.cpu.fetch.nisnDist::2                   104810      1.00%     50.71% # Number of instructions fetched each cycle (Total) (Count)
system.cpu.fetch.nisnDist::3                   128646      1.22%     51.94% # Number of instructions fetched each cycle (Total) (Count)
system.cpu.fetch.nisnDist::4                  1095786     10.43%     62.37% # Number of instructions fetched each cycle (Total) (Count)
system.cpu.fetch.nisnDist::5                    96175      0.92%     63.28% # Number of instructions fetched each cycle (Total) (Count)
system.cpu.fetch.nisnDist::6                   584722      5.57%     68.85% # Number of instructions fetched each cycle (Total) (Count)
system.cpu.fetch.nisnDist::7                    89366      0.85%     69.70% # Number of instructions fetched each cycle (Total) (Count)
system.cpu.fetch.nisnDist::8                  3183233     30.30%    100.00% # Number of instructions fetched each cycle (Total) (Count)
system.cpu.fetch.nisnDist::overflows                0      0.00%    100.00% # Number of instructions fetched each cycle (Total) (Count)
system.cpu.fetch.nisnDist::min_value                0                       # Number of instructions fetched each cycle (Total) (Count)
system.cpu.fetch.nisnDist::max_value                8                       # Number of instructions fetched each cycle (Total) (Count)
system.cpu.fetch.nisnDist::total             10505753                       # Number of instructions fetched each cycle (Total) (Count)
system.cpu.fetch.branchRate                  0.318897                       # Number of branch fetches per cycle (Ratio)
system.cpu.fetch.rate                        1.920454                       # Number of inst fetches per cycle ((Count/Cycle))
system.cpu.icache.demandHits::cpu.inst        3657729                       # number of demand (read+write) hits (Count)
system.cpu.icache.demandHits::total           3657729                       # number of demand (read+write) hits (Count)
system.cpu.icache.overallHits::cpu.inst       3657729                       # number of overall hits (Count)
system.cpu.icache.overallHits::total          3657729                       # number of overall hits (Count)
system.cpu.icache.demandMisses::cpu.inst         1803                       # number of demand (read+write) misses (Count)
system.cpu.icache.demandMisses::total            1803                       # number of demand (read+write) misses (Count)
system.cpu.icache.overallMisses::cpu.inst         1803                       # number of overall misses (Count)
system.cpu.icache.overallMisses::total           1803                       # number of overall misses (Count)
system.cpu.icache.demandMissLatency::cpu.inst    124036499                       # number of demand (read+write) miss ticks (Tick)
system.cpu.icache.demandMissLatency::total    124036499                       # number of demand (read+write) miss ticks (Tick)
system.cpu.icache.overallMissLatency::cpu.inst    124036499                       # number of overall miss ticks (Tick)
system.cpu.icache.overallMissLatency::total    124036499                       # number of overall miss ticks (Tick)
system.cpu.icache.demandAccesses::cpu.inst      3659532                       # number of demand (read+write) accesses (Count)
system.cpu.icache.demandAccesses::total       3659532                       # number of demand (read+write) accesses (Count)
system.cpu.icache.overallAccesses::cpu.inst      3659532                       # number of overall (read+write) accesses (Count)
system.cpu.icache.overallAccesses::total      3659532                       # number of overall (read+write) accesses (Count)
system.cpu.icache.demandMissRate::cpu.inst     0.000493                       # miss rate for demand accesses (Ratio)
system.cpu.icache.demandMissRate::total      0.000493                       # miss rate for demand accesses (Ratio)
system.cpu.icache.overallMissRate::cpu.inst     0.000493                       # miss rate for overall accesses (Ratio)
system.cpu.icache.overallMissRate::total     0.000493                       # miss rate for overall accesses (Ratio)
system.cpu.icache.demandAvgMissLatency::cpu.inst 68794.508597                       # average overall miss latency ((Cycle/Count))
system.cpu.icache.demandAvgMissLatency::total 68794.508597                       # average overall miss latency ((Cycle/Count))
system.cpu.icache.overallAvgMissLatency::cpu.inst 68794.508597                       # average overall miss latency ((Cycle/Count))
system.cpu.icache.overallAvgMissLatency::total 68794.508597                       # average overall miss latency ((Cycle/Count))
system.cpu.icache.blockedCycles::no_mshrs          132                       # number of cycles access was blocked (Cycle)
system.cpu.icache.blockedCycles::no_targets            0                       # number of cycles access was blocked (Cycle)
system.cpu.icache.blockedCauses::no_mshrs            3                       # number of times access was blocked (Count)
system.cpu.icache.blockedCauses::no_targets            0                       # number of times access was blocked (Count)
system.cpu.icache.avgBlocked::no_mshrs             44                       # average number of cycles each access was blocked ((Cycle/Count))
system.cpu.icache.avgBlocked::no_targets          nan                       # average number of cycles each access was blocked ((Cycle/Count))
system.cpu.icache.demandMshrHits::cpu.inst          442                       # number of demand (read+write) MSHR hits (Count)
system.cpu.icache.demandMshrHits::total           442                       # number of demand (read+write) MSHR hits (Count)
system.cpu.icache.overallMshrHits::cpu.inst          442                       # number of overall MSHR hits (Count)
system.cpu.icache.overallMshrHits::total          442                       # number of overall MSHR hits (Count)
system.cpu.icache.demandMshrMisses::cpu.inst         1361                       # number of demand (read+write) MSHR misses (Count)
system.cpu.icache.demandMshrMisses::total         1361                       # number of demand (read+write) MSHR misses (Count)
system.cpu.icache.overallMshrMisses::cpu.inst         1361                       # number of overall MSHR misses (Count)
system.cpu.icache.overallMshrMisses::total         1361                       # number of overall MSHR misses (Count)
system.cpu.icache.demandMshrMissLatency::cpu.inst     97187499                       # number of demand (read+write) MSHR miss ticks (Tick)
system.cpu.icache.demandMshrMissLatency::total     97187499                       # number of demand (read+write) MSHR miss ticks (Tick)
system.cpu.icache.overallMshrMissLatency::cpu.inst     97187499                       # number of overall MSHR miss ticks (Tick)
system.cpu.icache.overallMshrMissLatency::total     97187499                       # number of overall MSHR miss ticks (Tick)
system.cpu.icache.demandMshrMissRate::cpu.inst     0.000372                       # mshr miss ratio for demand accesses (Ratio)
system.cpu.icache.demandMshrMissRate::total     0.000372                       # mshr miss ratio for demand accesses (Ratio)
system.cpu.icache.overallMshrMissRate::cpu.inst     0.000372                       # mshr miss ratio for overall accesses (Ratio)
system.cpu.icache.overallMshrMissRate::total     0.000372                       # mshr miss ratio for overall accesses (Ratio)
system.cpu.icache.demandAvgMshrMissLatency::cpu.inst 71408.889787                       # average overall mshr miss latency ((Cycle/Count))
system.cpu.icache.demandAvgMshrMissLatency::total 71408.889787                       # average overall mshr miss latency ((Cycle/Count))
system.cpu.icache.overallAvgMshrMissLatency::cpu.inst 71408.889787                       # average overall mshr miss latency ((Cycle/Count))
system.cpu.icache.overallAvgMshrMissLatency::total 71408.889787                       # average overall mshr miss latency ((Cycle/Count))
system.cpu.icache.replacements                    848                       # number of replacements (Count)
system.cpu.icache.ReadReq.hits::cpu.inst      3657729                       # number of ReadReq hits (Count)
system.cpu.icache.ReadReq.hits::total         3657729                       # number of ReadReq hits (Count)
system.cpu.icache.ReadReq.misses::cpu.inst         1803                       # number of ReadReq misses (Count)
system.cpu.icache.ReadReq.misses::total          1803                       # number of ReadReq misses (Count)
system.cpu.icache.ReadReq.missLatency::cpu.inst    124036499                       # number of ReadReq miss ticks (Tick)
system.cpu.icache.ReadReq.missLatency::total    124036499                       # number of ReadReq miss ticks (Tick)
system.cpu.icache.ReadReq.accesses::cpu.inst      3659532                       # number of ReadReq accesses(hits+misses) (Count)
system.cpu.icache.ReadReq.accesses::total      3659532                       # number of ReadReq accesses(hits+misses) (Count)
system.cpu.icache.ReadReq.missRate::cpu.inst     0.000493                       # miss rate for ReadReq accesses (Ratio)
system.cpu.icache.ReadReq.missRate::total     0.000493                       # miss rate for ReadReq accesses (Ratio)
system.cpu.icache.ReadReq.avgMissLatency::cpu.inst 68794.508597                       # average ReadReq miss latency ((Tick/Count))
system.cpu.icache.ReadReq.avgMissLatency::total 68794.508597                       # average ReadReq miss latency ((Tick/Count))
system.cpu.icache.ReadReq.mshrHits::cpu.inst          442                       # number of ReadReq MSHR hits (Count)
system.cpu.icache.ReadReq.mshrHits::total          442                       # number of ReadReq MSHR hits (Count)
system.cpu.icache.ReadReq.mshrMisses::cpu.inst         1361                       # number of ReadReq MSHR misses (Count)
system.cpu.icache.ReadReq.mshrMisses::total         1361                       # number of ReadReq MSHR misses (Count)
system.cpu.icache.ReadReq.mshrMissLatency::cpu.inst     97187499                       # number of ReadReq MSHR miss ticks (Tick)
system.cpu.icache.ReadReq.mshrMissLatency::total     97187499                       # number of ReadReq MSHR miss ticks (Tick)
system.cpu.icache.ReadReq.mshrMissRate::cpu.inst     0.000372                       # mshr miss rate for ReadReq accesses (Ratio)
system.cpu.icache.ReadReq.mshrMissRate::total     0.000372                       # mshr miss rate for ReadReq accesses (Ratio)
system.cpu.icache.ReadReq.avgMshrMissLatency::cpu.inst 71408.889787                       # average ReadReq mshr miss latency ((Tick/Count))
system.cpu.icache.ReadReq.avgMshrMissLatency::total 71408.889787                       # average ReadReq mshr miss latency ((Tick/Count))
system.cpu.icache.power_state.pwrStateResidencyTicks::UNDEFINED   5300083500                       # Cumulative time (in ticks) in various power states (Tick)
system.cpu.icache.tags.tagsInUse           509.230026                       # Average ticks per tags in use ((Tick/Count))
system.cpu.icache.tags.totalRefs              3659089                       # Total number of references to valid blocks. (Count)
system.cpu.icache.tags.sampledRefs               1360                       # Sample count of references to valid blocks. (Count)
system.cpu.icache.tags.avgRefs            2690.506618                       # Average number of references to valid blocks. ((Count/Count))
system.cpu.icache.tags.warmupTick               82000                       # The tick when the warmup percentage was hit. (Tick)
system.cpu.icache.tags.occupancies::cpu.inst   509.230026                       # Average occupied blocks per tick, per requestor ((Count/Tick))
system.cpu.icache.tags.avgOccs::cpu.inst     0.994590                       # Average percentage of cache occupancy ((Ratio/Tick))
system.cpu.icache.tags.avgOccs::total        0.994590                       # Average percentage of cache occupancy ((Ratio/Tick))
system.cpu.icache.tags.occupanciesTaskId::1024          512                       # Occupied blocks per task id (Count)
system.cpu.icache.tags.ageTaskId_1024::0           97                       # Occupied blocks per task id, per block age (Count)
system.cpu.icache.tags.ageTaskId_1024::2          318                       # Occupied blocks per task id, per block age (Count)
system.cpu.icache.tags.ageTaskId_1024::3           97                       # Occupied blocks per task id, per block age (Count)
system.cpu.icache.tags.ratioOccsTaskId::1024            1                       # Ratio of occupied blocks and all blocks, per task id (Ratio)
system.cpu.icache.tags.tagAccesses           29277616                       # Number of tag accesses (Count)
system.cpu.icache.tags.dataAccesses          29277616                       # Number of data accesses (Count)
system.cpu.icache.tags.power_state.pwrStateResidencyTicks::UNDEFINED   5300083500                       # Cumulative time (in ticks) in various power states (Tick)
system.cpu.iew.idleCycles                           0                       # Number of cycles IEW is idle (Cycle)
system.cpu.iew.squashCycles                     15052                       # Number of cycles IEW is squashing (Cycle)
system.cpu.iew.blockCycles                     143104                       # Number of cycles IEW is blocking (Cycle)
system.cpu.iew.unblockCycles                     9057                       # Number of cycles IEW is unblocking (Cycle)
system.cpu.iew.dispatchedInsts               35856509                       # Number of instructions dispatched to IQ (Count)
system.cpu.iew.dispSquashedInsts                  390                       # Number of squashed instructions skipped by dispatch (Count)
system.cpu.iew.dispLoadInsts                  8056590                       # Number of dispatched load instructions (Count)
system.cpu.iew.dispStoreInsts                 4112883                       # Number of dispatched store instructions (Count)
system.cpu.iew.dispNonSpecInsts                    35                       # Number of dispatched non-speculative instructions (Count)
system.cpu.iew.iqFullEvents                      2230                       # Number of times the IQ has become full, causing a stall (Count)
system.cpu.iew.lsqFullEvents                     6429                       # Number of times the LSQ has become full, causing a stall (Count)
system.cpu.iew.memOrderViolationEvents            514                       # Number of memory order violations (Count)
system.cpu.iew.predictedTakenIncorrect           5133                       # Number of branches that were predicted taken incorrectly (Count)
system.cpu.iew.predictedNotTakenIncorrect         9313                       # Number of branches that were predicted not taken incorrectly (Count)
system.cpu.iew.branchMispredicts                14446                       # Number of branch mispredicts detected at execute (Count)
system.cpu.iew.instsToCommit                 35665931                       # Cumulative count of insts sent to commit (Count)
system.cpu.iew.writebackCount                35659787                       # Cumulative count of insts written-back (Count)
system.cpu.iew.producerInst                  22829209                       # Number of instructions producing a value (Count)
system.cpu.iew.consumerInst                  30369190                       # Number of instructions consuming a value (Count)
system.cpu.iew.wbRate                        3.364078                       # Insts written-back per cycle ((Count/Cycle))
system.cpu.iew.wbFanout                      0.751723                       # Average fanout of values written-back ((Count/Count))
system.cpu.interrupts.clk_domain.clock           8000                       # Clock period in ticks (Tick)
system.cpu.l2cache.demandHits::cpu.inst            47                       # number of demand (read+write) hits (Count)
system.cpu.l2cache.demandHits::cpu.data          2700                       # number of demand (read+write) hits (Count)
system.cpu.l2cache.demandHits::total             2747                       # number of demand (read+write) hits (Count)
system.cpu.l2cache.overallHits::cpu.inst           47                       # number of overall hits (Count)
system.cpu.l2cache.overallHits::cpu.data         2700                       # number of overall hits (Count)
system.cpu.l2cache.overallHits::total            2747                       # number of overall hits (Count)
system.cpu.l2cache.demandMisses::cpu.inst         1314                       # number of demand (read+write) misses (Count)
system.cpu.l2cache.demandMisses::cpu.data         5687                       # number of demand (read+write) misses (Count)
system.cpu.l2cache.demandMisses::total           7001                       # number of demand (read+write) misses (Count)
system.cpu.l2cache.overallMisses::cpu.inst         1314                       # number of overall misses (Count)
system.cpu.l2cache.overallMisses::cpu.data         5687                       # number of overall misses (Count)
system.cpu.l2cache.overallMisses::total          7001                       # number of overall misses (Count)
system.cpu.l2cache.demandMissLatency::cpu.inst     94647000                       # number of demand (read+write) miss ticks (Tick)
system.cpu.l2cache.demandMissLatency::cpu.data    423601000                       # number of demand (read+write) miss ticks (Tick)
system.cpu.l2cache.demandMissLatency::total    518248000                       # number of demand (read+write) miss ticks (Tick)
system.cpu.l2cache.overallMissLatency::cpu.inst     94647000                       # number of overall miss ticks (Tick)
system.cpu.l2cache.overallMissLatency::cpu.data    423601000                       # number of overall miss ticks (Tick)
system.cpu.l2cache.overallMissLatency::total    518248000                       # number of overall miss ticks (Tick)
system.cpu.l2cache.demandAccesses::cpu.inst         1361                       # number of demand (read+write) accesses (Count)
system.cpu.l2cache.demandAccesses::cpu.data         8387                       # number of demand (read+write) accesses (Count)
system.cpu.l2cache.demandAccesses::total         9748                       # number of demand (read+write) accesses (Count)
system.cpu.l2cache.overallAccesses::cpu.inst         1361                       # number of overall (read+write) accesses (Count)
system.cpu.l2cache.overallAccesses::cpu.data         8387                       # number of overall (read+write) accesses (Count)
system.cpu.l2cache.overallAccesses::total         9748                       # number of overall (read+write) accesses (Count)
system.cpu.l2cache.demandMissRate::cpu.inst     0.965467                       # miss rate for demand accesses (Ratio)
system.cpu.l2cache.demandMissRate::cpu.data     0.678073                       # miss rate for demand accesses (Ratio)
system.cpu.l2cache.demandMissRate::total     0.718199                       # miss rate for demand accesses (Ratio)
system.cpu.l2cache.overallMissRate::cpu.inst     0.965467                       # miss rate for overall accesses (Ratio)
system.cpu.l2cache.overallMissRate::cpu.data     0.678073                       # miss rate for overall accesses (Ratio)
system.cpu.l2cache.overallMissRate::total     0.718199                       # miss rate for overall accesses (Ratio)
system.cpu.l2cache.demandAvgMissLatency::cpu.inst 72029.680365                       # average overall miss latency ((Cycle/Count))
system.cpu.l2cache.demandAvgMissLatency::cpu.data 74485.844909                       # average overall miss latency ((Cycle/Count))
system.cpu.l2cache.demandAvgMissLatency::total 74024.853592                       # average overall miss latency ((Cycle/Count))
system.cpu.l2cache.overallAvgMissLatency::cpu.inst 72029.680365                       # average overall miss latency ((Cycle/Count))
system.cpu.l2cache.overallAvgMissLatency::cpu.data 74485.844909                       # average overall miss latency ((Cycle/Count))
system.cpu.l2cache.overallAvgMissLatency::total 74024.853592                       # average overall miss latency ((Cycle/Count))
system.cpu.l2cache.blockedCycles::no_mshrs            0                       # number of cycles access was blocked (Cycle)
system.cpu.l2cache.blockedCycles::no_targets            0                       # number of cycles access was blocked (Cycle)
system.cpu.l2cache.blockedCauses::no_mshrs            0                       # number of times access was blocked (Count)
system.cpu.l2cache.blockedCauses::no_targets            0                       # number of times access was blocked (Count)
system.cpu.l2cache.avgBlocked::no_mshrs           nan                       # average number of cycles each access was blocked ((Cycle/Count))
system.cpu.l2cache.avgBlocked::no_targets          nan                       # average number of cycles each access was blocked ((Cycle/Count))
system.cpu.l2cache.writebacks::writebacks          163                       # number of writebacks (Count)
system.cpu.l2cache.writebacks::total              163                       # number of writebacks (Count)
system.cpu.l2cache.demandMshrMisses::cpu.inst         1314                       # number of demand (read+write) MSHR misses (Count)
system.cpu.l2cache.demandMshrMisses::cpu.data         5687                       # number of demand (read+write) MSHR misses (Count)
system.cpu.l2cache.demandMshrMisses::total         7001                       # number of demand (read+write) MSHR misses (Count)
system.cpu.l2cache.overallMshrMisses::cpu.inst         1314                       # number of overall MSHR misses (Count)
system.cpu.l2cache.overallMshrMisses::cpu.data         5687                       # number of overall MSHR misses (Count)
system.cpu.l2cache.overallMshrMisses::total         7001                       # number of overall MSHR misses (Count)
system.cpu.l2cache.demandMshrMissLatency::cpu.inst     81517000                       # number of demand (read+write) MSHR miss ticks (Tick)
system.cpu.l2cache.demandMshrMissLatency::cpu.data    366731000                       # number of demand (read+write) MSHR miss ticks (Tick)
system.cpu.l2cache.demandMshrMissLatency::total    448248000                       # number of demand (read+write) MSHR miss ticks (Tick)
system.cpu.l2cache.overallMshrMissLatency::cpu.inst     81517000                       # number of overall MSHR miss ticks (Tick)
system.cpu.l2cache.overallMshrMissLatency::cpu.data    366731000                       # number of overall MSHR miss ticks (Tick)
system.cpu.l2cache.overallMshrMissLatency::total    448248000                       # number of overall MSHR miss ticks (Tick)
system.cpu.l2cache.demandMshrMissRate::cpu.inst     0.965467                       # mshr miss ratio for demand accesses (Ratio)
[...]
system.mem_ctrl.dram.bytesWritten::total        10432                       # Number of bytes written to this memory (Byte)
system.mem_ctrl.dram.numReads::cpu.inst          1313                       # Number of read requests responded to by this memory (Count)
system.mem_ctrl.dram.numReads::cpu.data          5687                       # Number of read requests responded to by this memory (Count)
system.mem_ctrl.dram.numReads::total             7000                       # Number of read requests responded to by this memory (Count)
system.mem_ctrl.dram.numWrites::writebacks          163                       # Number of write requests responded to by this memory (Count)
system.mem_ctrl.dram.numWrites::total             163                       # Number of write requests responded to by this memory (Count)
system.mem_ctrl.dram.bwRead::cpu.inst        15854845                       # Total read bandwidth from this memory ((Byte/Second))
system.mem_ctrl.dram.bwRead::cpu.data        68672126                       # Total read bandwidth from this memory ((Byte/Second))
system.mem_ctrl.dram.bwRead::total           84526970                       # Total read bandwidth from this memory ((Byte/Second))
system.mem_ctrl.dram.bwInstRead::cpu.inst     15854845                       # Instruction read bandwidth from this memory ((Byte/Second))
system.mem_ctrl.dram.bwInstRead::total       15854845                       # Instruction read bandwidth from this memory ((Byte/Second))
system.mem_ctrl.dram.bwWrite::writebacks      1968271                       # Write bandwidth from this memory ((Byte/Second))
system.mem_ctrl.dram.bwWrite::total           1968271                       # Write bandwidth from this memory ((Byte/Second))
system.mem_ctrl.dram.bwTotal::writebacks      1968271                       # Total bandwidth to/from this memory ((Byte/Second))
system.mem_ctrl.dram.bwTotal::cpu.inst       15854845                       # Total bandwidth to/from this memory ((Byte/Second))
system.mem_ctrl.dram.bwTotal::cpu.data       68672126                       # Total bandwidth to/from this memory ((Byte/Second))
system.mem_ctrl.dram.bwTotal::total          86495241                       # Total bandwidth to/from this memory ((Byte/Second))
system.mem_ctrl.dram.readBursts                  6990                       # Number of DRAM read bursts (Count)
system.mem_ctrl.dram.writeBursts                  136                       # Number of DRAM write bursts (Count)
system.mem_ctrl.dram.perBankRdBursts::0           546                       # Per bank write bursts (Count)
system.mem_ctrl.dram.perBankRdBursts::1           532                       # Per bank write bursts (Count)
system.mem_ctrl.dram.perBankRdBursts::2           681                       # Per bank write bursts (Count)
system.mem_ctrl.dram.perBankRdBursts::3           472                       # Per bank write bursts (Count)
system.mem_ctrl.dram.perBankRdBursts::4           452                       # Per bank write bursts (Count)
system.mem_ctrl.dram.perBankRdBursts::5           377                       # Per bank write bursts (Count)
system.mem_ctrl.dram.perBankRdBursts::6           345                       # Per bank write bursts (Count)
system.mem_ctrl.dram.perBankRdBursts::7           317                       # Per bank write bursts (Count)
system.mem_ctrl.dram.perBankRdBursts::8           343                       # Per bank write bursts (Count)
system.mem_ctrl.dram.perBankRdBursts::9           413                       # Per bank write bursts (Count)
system.mem_ctrl.dram.perBankRdBursts::10          476                       # Per bank write bursts (Count)
system.mem_ctrl.dram.perBankRdBursts::11          413                       # Per bank write bursts (Count)
system.mem_ctrl.dram.perBankRdBursts::12          335                       # Per bank write bursts (Count)
system.mem_ctrl.dram.perBankRdBursts::13          385                       # Per bank write bursts (Count)
system.mem_ctrl.dram.perBankRdBursts::14          392                       # Per bank write bursts (Count)
system.mem_ctrl.dram.perBankRdBursts::15          511                       # Per bank write bursts (Count)
system.mem_ctrl.dram.perBankWrBursts::0            12                       # Per bank write bursts (Count)
system.mem_ctrl.dram.perBankWrBursts::1             4                       # Per bank write bursts (Count)
system.mem_ctrl.dram.perBankWrBursts::2            76                       # Per bank write bursts (Count)
system.mem_ctrl.dram.perBankWrBursts::3            19                       # Per bank write bursts (Count)
system.mem_ctrl.dram.perBankWrBursts::4             2                       # Per bank write bursts (Count)
system.mem_ctrl.dram.perBankWrBursts::5             0                       # Per bank write bursts (Count)
system.mem_ctrl.dram.perBankWrBursts::6             0                       # Per bank write bursts (Count)
system.mem_ctrl.dram.perBankWrBursts::7             0                       # Per bank write bursts (Count)
system.mem_ctrl.dram.perBankWrBursts::8             0                       # Per bank write bursts (Count)
system.mem_ctrl.dram.perBankWrBursts::9             0                       # Per bank write bursts (Count)
system.mem_ctrl.dram.perBankWrBursts::10            4                       # Per bank write bursts (Count)
system.mem_ctrl.dram.perBankWrBursts::11            0                       # Per bank write bursts (Count)
system.mem_ctrl.dram.perBankWrBursts::12            0                       # Per bank write bursts (Count)
system.mem_ctrl.dram.perBankWrBursts::13            0                       # Per bank write bursts (Count)
system.mem_ctrl.dram.perBankWrBursts::14            0                       # Per bank write bursts (Count)
system.mem_ctrl.dram.perBankWrBursts::15           19                       # Per bank write bursts (Count)
system.mem_ctrl.dram.totQLat                 67525250                       # Total ticks spent queuing (Tick)
system.mem_ctrl.dram.totBusLat               34950000                       # Total ticks spent in databus transfers (Tick)
system.mem_ctrl.dram.totMemAccLat           198587750                       # Total ticks spent from burst creation until serviced by the DRAM (Tick)
system.mem_ctrl.dram.avgQLat                  9660.26                       # Average queueing delay per DRAM burst ((Tick/Count))
system.mem_ctrl.dram.avgBusLat                5000.00                       # Average bus latency per DRAM burst ((Tick/Count))
system.mem_ctrl.dram.avgMemAccLat            28410.26                       # Average memory access latency per DRAM burst ((Tick/Count))
system.mem_ctrl.dram.readRowHits                 5833                       # Number of row buffer hits during reads (Count)
system.mem_ctrl.dram.writeRowHits                 114                       # Number of row buffer hits during writes (Count)
system.mem_ctrl.dram.readRowHitRate             83.45                       # Row buffer hit rate for reads (Ratio)
system.mem_ctrl.dram.writeRowHitRate            83.82                       # Row buffer hit rate for writes (Ratio)
system.mem_ctrl.dram.bytesPerActivate::samples         1167                       # Bytes accessed per row activation (Byte)
system.mem_ctrl.dram.bytesPerActivate::mean   389.264781                       # Bytes accessed per row activation (Byte)
system.mem_ctrl.dram.bytesPerActivate::gmean   276.197849                       # Bytes accessed per row activation (Byte)
system.mem_ctrl.dram.bytesPerActivate::stdev   314.631344                       # Bytes accessed per row activation (Byte)
system.mem_ctrl.dram.bytesPerActivate::0-127          160     13.71%     13.71% # Bytes accessed per row activation (Byte)
system.mem_ctrl.dram.bytesPerActivate::128-255          400     34.28%     47.99% # Bytes accessed per row activation (Byte)
system.mem_ctrl.dram.bytesPerActivate::256-383           89      7.63%     55.61% # Bytes accessed per row activation (Byte)
system.mem_ctrl.dram.bytesPerActivate::384-511          191     16.37%     71.98% # Bytes accessed per row activation (Byte)
system.mem_ctrl.dram.bytesPerActivate::512-639           80      6.86%     78.83% # Bytes accessed per row activation (Byte)
system.mem_ctrl.dram.bytesPerActivate::640-767           34      2.91%     81.75% # Bytes accessed per row activation (Byte)
system.mem_ctrl.dram.bytesPerActivate::768-895           36      3.08%     84.83% # Bytes accessed per row activation (Byte)
system.mem_ctrl.dram.bytesPerActivate::896-1023           30      2.57%     87.40% # Bytes accessed per row activation (Byte)
system.mem_ctrl.dram.bytesPerActivate::1024-1151          147     12.60%    100.00% # Bytes accessed per row activation (Byte)
system.mem_ctrl.dram.bytesPerActivate::total         1167                       # Bytes accessed per row activation (Byte)
system.mem_ctrl.dram.bytesRead                 447360                       # Total bytes read (Byte)
system.mem_ctrl.dram.bytesWritten                8704                       # Total bytes written (Byte)
system.mem_ctrl.dram.avgRdBW                84.406217                       # Average DRAM read bandwidth in MiBytes/s ((Byte/Second))
system.mem_ctrl.dram.avgWrBW                 1.642238                       # Average DRAM write bandwidth in MiBytes/s ((Byte/Second))
system.mem_ctrl.dram.peakBW                  12800.00                       # Theoretical peak bandwidth in MiByte/s ((Byte/Second))
system.mem_ctrl.dram.busUtil                     0.67                       # Data bus utilization in percentage (Ratio)
system.mem_ctrl.dram.busUtilRead                 0.66                       # Data bus utilization in percentage for reads (Ratio)
system.mem_ctrl.dram.busUtilWrite                0.01                       # Data bus utilization in percentage for writes (Ratio)
system.mem_ctrl.dram.pageHitRate                83.45                       # Row buffer hit rate, read and write combined (Ratio)
system.mem_ctrl.dram.power_state.pwrStateResidencyTicks::UNDEFINED   5300083500                       # Cumulative time (in ticks) in various power states (Tick)
system.mem_ctrl.dram.rank0.actEnergy          4391100                       # Energy for activate commands per rank (pJ) (Joule)
system.mem_ctrl.dram.rank0.preEnergy          2307360                       # Energy for precharge commands per rank (pJ) (Joule)
system.mem_ctrl.dram.rank0.readEnergy        26575080                       # Energy for read commands per rank (pJ) (Joule)
system.mem_ctrl.dram.rank0.writeEnergy         589860                       # Energy for write commands per rank (pJ) (Joule)
system.mem_ctrl.dram.rank0.refreshEnergy 417955200.000000                       # Energy for refresh commands per rank (pJ) (Joule)
system.mem_ctrl.dram.rank0.actBackEnergy    789073800                       # Energy for active background per rank (pJ) (Joule)
system.mem_ctrl.dram.rank0.preBackEnergy   1370748960                       # Energy for precharge background per rank (pJ) (Joule)
system.mem_ctrl.dram.rank0.actPowerDownEnergy            0                       # Energy for active power-down per rank (pJ) (Joule)
system.mem_ctrl.dram.rank0.prePowerDownEnergy            0                       # Energy for precharge power-down per rank (pJ) (Joule)
system.mem_ctrl.dram.rank0.selfRefreshEnergy            0                       # Energy for self refresh per rank (pJ) (Joule)
system.mem_ctrl.dram.rank0.totalEnergy     2611641360                       # Total energy per rank (pJ) (Joule)
system.mem_ctrl.dram.rank0.averagePower    492.754758                       # Core power per rank (mW) (Watt)
system.mem_ctrl.dram.rank0.totalIdleTime            0                       # Total Idle time Per DRAM Rank (Tick)
system.mem_ctrl.dram.rank0.pwrStateTime::IDLE   3555513250                       # Time in different power states (Tick)
system.mem_ctrl.dram.rank0.pwrStateTime::REF    176800000                       # Time in different power states (Tick)
system.mem_ctrl.dram.rank0.pwrStateTime::SREF            0                       # Time in different power states (Tick)
system.mem_ctrl.dram.rank0.pwrStateTime::PRE_PDN            0                       # Time in different power states (Tick)
system.mem_ctrl.dram.rank0.pwrStateTime::ACT   1567770250                       # Time in different power states (Tick)
system.mem_ctrl.dram.rank0.pwrStateTime::ACT_PDN            0                       # Time in different power states (Tick)
system.mem_ctrl.dram.rank1.actEnergy          4026960                       # Energy for activate commands per rank (pJ) (Joule)
system.mem_ctrl.dram.rank1.preEnergy          2121405                       # Energy for precharge commands per rank (pJ) (Joule)
system.mem_ctrl.dram.rank1.readEnergy        23333520                       # Energy for read commands per rank (pJ) (Joule)
system.mem_ctrl.dram.rank1.writeEnergy         120060                       # Energy for write commands per rank (pJ) (Joule)
system.mem_ctrl.dram.rank1.refreshEnergy 417955200.000000                       # Energy for refresh commands per rank (pJ) (Joule)
system.mem_ctrl.dram.rank1.actBackEnergy    826055400                       # Energy for active background per rank (pJ) (Joule)
system.mem_ctrl.dram.rank1.preBackEnergy   1339606560                       # Energy for precharge background per rank (pJ) (Joule)
system.mem_ctrl.dram.rank1.actPowerDownEnergy            0                       # Energy for active power-down per rank (pJ) (Joule)
system.mem_ctrl.dram.rank1.prePowerDownEnergy            0                       # Energy for precharge power-down per rank (pJ) (Joule)
system.mem_ctrl.dram.rank1.selfRefreshEnergy            0                       # Energy for self refresh per rank (pJ) (Joule)
system.mem_ctrl.dram.rank1.totalEnergy     2613219105                       # Total energy per rank (pJ) (Joule)
system.mem_ctrl.dram.rank1.averagePower    493.052441                       # Core power per rank (mW) (Watt)
system.mem_ctrl.dram.rank1.totalIdleTime            0                       # Total Idle time Per DRAM Rank (Tick)
system.mem_ctrl.dram.rank1.pwrStateTime::IDLE   3474888250                       # Time in different power states (Tick)
system.mem_ctrl.dram.rank1.pwrStateTime::REF    176800000                       # Time in different power states (Tick)
system.mem_ctrl.dram.rank1.pwrStateTime::SREF            0                       # Time in different power states (Tick)
system.mem_ctrl.dram.rank1.pwrStateTime::PRE_PDN            0                       # Time in different power states (Tick)
system.mem_ctrl.dram.rank1.pwrStateTime::ACT   1648395250                       # Time in different power states (Tick)
system.mem_ctrl.dram.rank1.pwrStateTime::ACT_PDN            0                       # Time in different power states (Tick)
system.mem_ctrl.power_state.pwrStateResidencyTicks::UNDEFINED   5300083500                       # Cumulative time (in ticks) in various power states (Tick)
system.membus.transDist::ReadResp                5349                       # Transaction distribution (Count)
system.membus.transDist::WritebackDirty           163                       # Transaction distribution (Count)
system.membus.transDist::CleanEvict               296                       # Transaction distribution (Count)
system.membus.transDist::ReadExReq               1651                       # Transaction distribution (Count)
system.membus.transDist::ReadExResp              1651                       # Transaction distribution (Count)
system.membus.transDist::ReadSharedReq           5349                       # Transaction distribution (Count)
system.membus.pktCount_system.cpu.l2cache.mem_side_port::system.mem_ctrl.port        14459                       # Packet count per connected requestor and responder (Count)
system.membus.pktCount_system.cpu.l2cache.mem_side_port::total        14459                       # Packet count per connected requestor and responder (Count)
system.membus.pktCount::total                   14459                       # Packet count per connected requestor and responder (Count)
system.membus.pktSize_system.cpu.l2cache.mem_side_port::system.mem_ctrl.port       458432                       # Cumulative packet size per connected requestor and responder (Byte)
system.membus.pktSize_system.cpu.l2cache.mem_side_port::total       458432                       # Cumulative packet size per connected requestor and responder (Byte)
system.membus.pktSize::total                   458432                       # Cumulative packet size per connected requestor and responder (Byte)
system.membus.snoops                                0                       # Total snoops (Count)
system.membus.snoopTraffic                          0                       # Total snoop traffic (Byte)
system.membus.snoopFanout::samples               7000                       # Request fanout histogram (Count)
system.membus.snoopFanout::mean                     0                       # Request fanout histogram (Count)
system.membus.snoopFanout::stdev                    0                       # Request fanout histogram (Count)
system.membus.snoopFanout::underflows               0      0.00%      0.00% # Request fanout histogram (Count)
system.membus.snoopFanout::0                     7000    100.00%    100.00% # Request fanout histogram (Count)
system.membus.snoopFanout::1                        0      0.00%    100.00% # Request fanout histogram (Count)
system.membus.snoopFanout::overflows                0      0.00%    100.00% # Request fanout histogram (Count)
system.membus.snoopFanout::min_value                0                       # Request fanout histogram (Count)
system.membus.snoopFanout::max_value                0                       # Request fanout histogram (Count)
system.membus.snoopFanout::total                 7000                       # Request fanout histogram (Count)
system.membus.power_state.pwrStateResidencyTicks::UNDEFINED   5300083500                       # Cumulative time (in ticks) in various power states (Tick)
system.membus.reqLayer2.occupancy             4055500                       # Layer occupancy (ticks) (Tick)
system.membus.reqLayer2.utilization               0.0                       # Layer utilization (Ratio)
system.membus.respLayer0.occupancy           18756750                       # Layer occupancy (ticks) (Tick)
system.membus.respLayer0.utilization              0.0                       # Layer utilization (Ratio)
system.membus.snoop_filter.totRequests           7459                       # Total number of requests made to the snoop filter. (Count)
system.membus.snoop_filter.hitSingleRequests          459                       # Number of requests hitting in the snoop filter with a single holder of the requested data. (Count)
system.membus.snoop_filter.hitMultiRequests            0                       # Number of requests hitting in the snoop filter with multiple (>1) holders of the requested data. (Count)
system.membus.snoop_filter.totSnoops                0                       # Total number of snoops made to the snoop filter. (Count)
system.membus.snoop_filter.hitSingleSnoops            0                       # Number of snoops hitting in the snoop filter with a single holder of the requested data. (Count)
system.membus.snoop_filter.hitMultiSnoops            0                       # Number of snoops hitting in the snoop filter with multiple (>1) holders of the requested data. (Count)
system.workload.inst.arm                            0                       # number of arm instructions executed (Count)
system.workload.inst.quiesce                        0                       # number of quiesce instructions executed (Count)

---------- End Simulation Statistics   ----------
