
---------- Begin Simulation Statistics ----------
simSeconds                                   0.005496                       # Number of seconds simulated (Second)
simTicks                                   5496431500                       # Number of ticks simulated (Tick)
finalTick                                  5496431500                       # Number of ticks from beginning of simulation (restored from checkpoints and never reset) (Tick)
simFreq                                  1000000000000                       # The number of ticks per simulated second ((Tick/Second))
hostSeconds                                    146.40                       # Real time elapsed on the host (Second)
hostTickRate                                 37544870                       # The number of ticks simulated per host second (ticks/s) ((Tick/Second))
hostMemory                                    1198756                       # Number of bytes of host memory used (Byte)
simInsts                                     19928472                       # Number of instructions simulated (Count)
simOps                                       35336505                       # Number of ops (including micro ops) simulated (Count)
hostInstRate                                   136127                       # Simulator instruction rate (inst/s) ((Count/Second))
hostOpRate                                     241375                       # Simulator op (including micro ops) rate (op/s) ((Count/Second))
system.clk_domain.clock                           500                       # Clock period in ticks (Tick)
system.clk_domain.voltage_domain.voltage            1                       # Voltage in Volts (Volt)
system.cpu.numCycles                         10992864                       # Number of cpu cycles simulated (Cycle)
system.cpu.numWorkItemsStarted                      0                       # Number of work items this cpu started (Count)
system.cpu.numWorkItemsCompleted                    0                       # Number of work items this cpu completed (Count)
system.cpu.instsAdded                        35868638                       # Number of instructions added to the IQ (excludes non-spec) (Count)
system.cpu.nonSpecInstsAdded                       34                       # Number of non-speculative instructions added to the IQ (Count)
system.cpu.instsIssued                       35723226                       # Number of instructions issued (Count)
system.cpu.squashedInstsIssued                   1307                       # Number of squashed instructions issued (Count)
system.cpu.squashedInstsExamined               532161                       # Number of squashed instructions iterated over during squash; mainly for profiling (Count)
system.cpu.squashedOperandsExamined            627474                       # Number of squashed operands that are examined and possibly removed from graph (Count)
system.cpu.squashedNonSpecRemoved                  16                       # Number of squashed non-spec instructions that were removed (Count)
system.cpu.numIssuedDist::samples            10886674                       # Number of insts issued each cycle (Count)
system.cpu.numIssuedDist::mean               3.281372                       # Number of insts issued each cycle (Count)
system.cpu.numIssuedDist::stdev              2.002560                       # Number of insts issued each cycle (Count)
system.cpu.numIssuedDist::underflows                0      0.00%      0.00% # Number of insts issued each cycle (Count)
system.cpu.numIssuedDist::0                    940303      8.64%      8.64% # Number of insts issued each cycle (Count)
system.cpu.numIssuedDist::1                   1239457     11.39%     20.02% # Number of insts issued each cycle (Count)
system.cpu.numIssuedDist::2                   1349348     12.39%     32.42% # Number of insts issued each cycle (Count)
system.cpu.numIssuedDist::3                   3186238     29.27%     61.68% # Number of insts issued each cycle (Count)
system.cpu.numIssuedDist::4                   1366088     12.55%     74.23% # Number of insts issued each cycle (Count)
system.cpu.numIssuedDist::5                   1305286     11.99%     86.22% # Number of insts issued each cycle (Count)
system.cpu.numIssuedDist::6                    770336      7.08%     93.30% # Number of insts issued each cycle (Count)
system.cpu.numIssuedDist::7                    223383      2.05%     95.35% # Number of insts issued each cycle (Count)
system.cpu.numIssuedDist::8                    506235      4.65%    100.00% # Number of insts issued each cycle (Count)
system.cpu.numIssuedDist::overflows                 0      0.00%    100.00% # Number of insts issued each cycle (Count)
system.cpu.numIssuedDist::min_value                 0                       # Number of insts issued each cycle (Count)
system.cpu.numIssuedDist::max_value                 8                       # Number of insts issued each cycle (Count)
system.cpu.numIssuedDist::total              10886674                       # Number of insts issued each cycle (Count)
system.cpu.statFuBusy::No_OpClass                   0      0.00%      0.00% # attempts to use FU when none available (Count)
system.cpu.statFuBusy::IntAlu                  139288     79.09%     79.09% # attempts to use FU when none available (Count)
system.cpu.statFuBusy::IntMult                      0      0.00%     79.09% # attempts to use FU when none available (Count)
system.cpu.statFuBusy::IntDiv                       0      0.00%     79.09% # attempts to use FU when none available (Count)
system.cpu.statFuBusy::FloatAdd                     0      0.00%     79.09% # attempts to use FU when none available (Count)
system.cpu.statFuBusy::FloatCmp                     0      0.00%     79.09% # attempts to use FU when none available (Count)
system.cpu.statFuBusy::FloatCvt                     0      0.00%     79.09% # attempts to use FU when none available (Count)
system.cpu.statFuBusy::FloatMult                    0      0.00%     79.09% # attempts to use FU when none available (Count)
system.cpu.statFuBusy::FloatMultAcc                 0      0.00%     79.09% # attempts to use FU when none available (Count)
system.cpu.statFuBusy::FloatDiv                     0      0.00%     79.09% # attempts to use FU when none available (Count)
system.cpu.statFuBusy::FloatMisc                    0      0.00%     79.09% # attempts to use FU when none available (Count)
system.cpu.statFuBusy::FloatSqrt                    0      0.00%     79.09% # attempts to use FU when none available (Count)
system.cpu.statFuBusy::SimdAdd                      0      0.00%     79.09% # attempts to use FU when none available (Count)
system.cpu.statFuBusy::SimdAddAcc                   0      0.00%     79.09% # attempts to use FU when none available (Count)
system.cpu.statFuBusy::SimdAlu                   1017      0.58%     79.66% # attempts to use FU when none available (Count)
system.cpu.statFuBusy::SimdCmp                      0      0.00%     79.66% # attempts to use FU when none available (Count)
system.cpu.statFuBusy::SimdCvt                     30      0.02%     79.68% # attempts to use FU when none available (Count)
system.cpu.statFuBusy::SimdMisc                     2      0.00%     79.68% # attempts to use FU when none available (Count)
system.cpu.statFuBusy::SimdMult                     0      0.00%     79.68% # attempts to use FU when none available (Count)
system.cpu.statFuBusy::SimdMultAcc                  0      0.00%     79.68% # attempts to use FU when none available (Count)
system.cpu.statFuBusy::SimdShift                    1      0.00%     79.68% # attempts to use FU when none available (Count)
system.cpu.statFuBusy::SimdShiftAcc                 0      0.00%     79.68% # attempts to use FU when none available (Count)
system.cpu.statFuBusy::SimdDiv                      0      0.00%     79.68% # attempts to use FU when none available (Count)
system.cpu.statFuBusy::SimdSqrt                     0      0.00%     79.68% # attempts to use FU when none available (Count)
system.cpu.statFuBusy::SimdFloatAdd                 0      0.00%     79.68% # attempts to use FU when none available (Count)
system.cpu.statFuBusy::SimdFloatAlu                 0      0.00%     79.68% # attempts to use FU when none available (Count)
system.cpu.statFuBusy::SimdFloatCmp                 0      0.00%     79.68% # attempts to use FU when none available (Count)
system.cpu.statFuBusy::SimdFloatCvt                 0      0.00%     79.68% # attempts to use FU when none available (Count)
system.cpu.statFuBusy::SimdFloatDiv                 0      0.00%     79.68% # attempts to use FU when none available (Count)
system.cpu.statFuBusy::SimdFloatMisc                0      0.00%     79.68% # attempts to use FU when none available (Count)
system.cpu.statFuBusy::SimdFloatMult                0      0.00%     79.68% # attempts to use FU when none available (Count)
system.cpu.statFuBusy::SimdFloatMultAcc             0      0.00%     79.68% # attempts to use FU when none available (Count)
system.cpu.statFuBusy::SimdFloatSqrt                0      0.00%     79.68% # attempts to use FU when none available (Count)
system.cpu.statFuBusy::SimdReduceAdd                0      0.00%     79.68% # attempts to use FU when none available (Count)
system.cpu.statFuBusy::SimdReduceAlu                0      0.00%     79.68% # attempts to use FU when none available (Count)
system.cpu.statFuBusy::SimdReduceCmp                0      0.00%     79.68% # attempts to use FU when none available (Count)
system.cpu.statFuBusy::SimdFloatReduceAdd            0      0.00%     79.68% # attempts to use FU when none available (Count)
system.cpu.statFuBusy::SimdFloatReduceCmp            0      0.00%     79.68% # attempts to use FU when none available (Count)
system.cpu.statFuBusy::SimdAes                      0      0.00%     79.68% # attempts to use FU when none available (Count)
system.cpu.statFuBusy::SimdAesMix                   0      0.00%     79.68% # attempts to use FU when none available (Count)
system.cpu.statFuBusy::SimdSha1Hash                 0      0.00%     79.68% # attempts to use FU when none available (Count)
system.cpu.statFuBusy::SimdSha1Hash2                0      0.00%     79.68% # attempts to use FU when none available (Count)
system.cpu.statFuBusy::SimdSha256Hash               0      0.00%     79.68% # attempts to use FU when none available (Count)
system.cpu.statFuBusy::SimdSha256Hash2              0      0.00%     79.68% # attempts to use FU when none available (Count)
system.cpu.statFuBusy::SimdShaSigma2                0      0.00%     79.68% # attempts to use FU when none available (Count)
system.cpu.statFuBusy::SimdShaSigma3                0      0.00%     79.68% # attempts to use FU when none available (Count)
system.cpu.statFuBusy::SimdPredAlu                  0      0.00%     79.68% # attempts to use FU when none available (Count)
system.cpu.statFuBusy::MemRead                  24544     13.94%     93.62% # attempts to use FU when none available (Count)
system.cpu.statFuBusy::MemWrite                  4372      2.48%     96.10% # attempts to use FU when none available (Count)
system.cpu.statFuBusy::FloatMemRead              1969      1.12%     97.22% # attempts to use FU when none available (Count)
system.cpu.statFuBusy::FloatMemWrite             4897      2.78%    100.00% # attempts to use FU when none available (Count)
system.cpu.statFuBusy::IprAccess                    0      0.00%    100.00% # attempts to use FU when none available (Count)
system.cpu.statFuBusy::InstPrefetch                 0      0.00%    100.00% # attempts to use FU when none available (Count)
system.cpu.statIssuedInstType_0::No_OpClass       594004      1.66%      1.66% # Number of instructions issued per FU type, per thread (Count)
system.cpu.statIssuedInstType_0::IntAlu      20325628     56.90%     58.56% # Number of instructions issued per FU type, per thread (Count)
system.cpu.statIssuedInstType_0::IntMult       517532      1.45%     60.01% # Number of instructions issued per FU type, per thread (Count)
system.cpu.statIssuedInstType_0::IntDiv         54224      0.15%     60.16% # Number of instructions issued per FU type, per thread (Count)
system.cpu.statIssuedInstType_0::FloatAdd      1517388      4.25%     64.41% # Number of instructions issued per FU type, per thread (Count)
system.cpu.statIssuedInstType_0::FloatCmp            0      0.00%     64.41% # Number of instructions issued per FU type, per thread (Count)
system.cpu.statIssuedInstType_0::FloatCvt           32      0.00%     64.41% # Number of instructions issued per FU type, per thread (Count)
system.cpu.statIssuedInstType_0::FloatMult            0      0.00%     64.41% # Number of instructions issued per FU type, per thread (Count)
system.cpu.statIssuedInstType_0::FloatMultAcc            0      0.00%     64.41% # Number of instructions issued per FU type, per thread (Count)
system.cpu.statIssuedInstType_0::FloatDiv            0      0.00%     64.41% # Number of instructions issued per FU type, per thread (Count)
system.cpu.statIssuedInstType_0::FloatMisc            0      0.00%     64.41% # Number of instructions issued per FU type, per thread (Count)
system.cpu.statIssuedInstType_0::FloatSqrt            0      0.00%     64.41% # Number of instructions issued per FU type, per thread (Count)
system.cpu.statIssuedInstType_0::SimdAdd          466      0.00%     64.41% # Number of instructions issued per FU type, per thread (Count)
system.cpu.statIssuedInstType_0::SimdAddAcc            0      0.00%     64.41% # Number of instructions issued per FU type, per thread (Count)
system.cpu.statIssuedInstType_0::SimdAlu        19196      0.05%     64.46% # Number of instructions issued per FU type, per thread (Count)
system.cpu.statIssuedInstType_0::SimdCmp            0      0.00%     64.46% # Number of instructions issued per FU type, per thread (Count)
system.cpu.statIssuedInstType_0::SimdCvt        11139      0.03%     64.49% # Number of instructions issued per FU type, per thread (Count)
system.cpu.statIssuedInstType_0::SimdMisc        24996      0.07%     64.56% # Number of instructions issued per FU type, per thread (Count)
system.cpu.statIssuedInstType_0::SimdMult            0      0.00%     64.56% # Number of instructions issued per FU type, per thread (Count)
system.cpu.statIssuedInstType_0::SimdMultAcc            0      0.00%     64.56% # Number of instructions issued per FU type, per thread (Count)
system.cpu.statIssuedInstType_0::SimdShift          353      0.00%     64.57% # Number of instructions issued per FU type, per thread (Count)
system.cpu.statIssuedInstType_0::SimdShiftAcc            0      0.00%     64.57% # Number of instructions issued per FU type, per thread (Count)
system.cpu.statIssuedInstType_0::SimdDiv            0      0.00%     64.57% # Number of instructions issued per FU type, per thread (Count)
system.cpu.statIssuedInstType_0::SimdSqrt            0      0.00%     64.57% # Number of instructions issued per FU type, per thread (Count)
system.cpu.statIssuedInstType_0::SimdFloatAdd            0      0.00%     64.57% # Number of instructions issued per FU type, per thread (Count)
system.cpu.statIssuedInstType_0::SimdFloatAlu            0      0.00%     64.57% # Number of instructions issued per FU type, per thread (Count)
system.cpu.statIssuedInstType_0::SimdFloatCmp            0      0.00%     64.57% # Number of instructions issued per FU type, per thread (Count)
system.cpu.statIssuedInstType_0::SimdFloatCvt       508525      1.42%     65.99% # Number of instructions issued per FU type, per thread (Count)
system.cpu.statIssuedInstType_0::SimdFloatDiv            0      0.00%     65.99% # Number of instructions issued per FU type, per thread (Count)
system.cpu.statIssuedInstType_0::SimdFloatMisc            0      0.00%     65.99% # Number of instructions issued per FU type, per thread (Count)
system.cpu.statIssuedInstType_0::SimdFloatMult            0      0.00%     65.99% # Number of instructions issued per FU type, per thread (Count)
system.cpu.statIssuedInstType_0::SimdFloatMultAcc            0      0.00%     65.99% # Number of instructions issued per FU type, per thread (Count)
system.cpu.statIssuedInstType_0::SimdFloatSqrt            0      0.00%     65.99% # Number of instructions issued per FU type, per thread (Count)
system.cpu.statIssuedInstType_0::SimdReduceAdd            0      0.00%     65.99% # Number of instructions issued per FU type, per thread (Count)
system.cpu.statIssuedInstType_0::SimdReduceAlu            0      0.00%     65.99% # Number of instructions issued per FU type, per thread (Count)
system.cpu.statIssuedInstType_0::SimdReduceCmp            0      0.00%     65.99% # Number of instructions issued per FU type, per thread (Count)
system.cpu.statIssuedInstType_0::SimdFloatReduceAdd            0      0.00%     65.99% # Number of instructions issued per FU type, per thread (Count)
system.cpu.statIssuedInstType_0::SimdFloatReduceCmp            0      0.00%     65.99% # Number of instructions issued per FU type, per thread (Count)
system.cpu.statIssuedInstType_0::SimdAes            0      0.00%     65.99% # Number of instructions issued per FU type, per thread (Count)
system.cpu.statIssuedInstType_0::SimdAesMix            0      0.00%     65.99% # Number of instructions issued per FU type, per thread (Count)
system.cpu.statIssuedInstType_0::SimdSha1Hash            0      0.00%     65.99% # Number of instructions issued per FU type, per thread (Count)
system.cpu.statIssuedInstType_0::SimdSha1Hash2            0      0.00%     65.99% # Number of instructions issued per FU type, per thread (Count)
system.cpu.statIssuedInstType_0::SimdSha256Hash            0      0.00%     65.99% # Number of instructions issued per FU type, per thread (Count)
system.cpu.statIssuedInstType_0::SimdSha256Hash2            0      0.00%     65.99% # Number of instructions issued per FU type, per thread (Count)
system.cpu.statIssuedInstType_0::SimdShaSigma2            0      0.00%     65.99% # Number of instructions issued per FU type, per thread (Count)
system.cpu.statIssuedInstType_0::SimdShaSigma3            0      0.00%     65.99% # Number of instructions issued per FU type, per thread (Count)
system.cpu.statIssuedInstType_0::SimdPredAlu            0      0.00%     65.99% # Number of instructions issued per FU type, per thread (Count)
system.cpu.statIssuedInstType_0::MemRead      5995395     16.78%     82.77% # Number of instructions issued per FU type, per thread (Count)
system.cpu.statIssuedInstType_0::MemWrite      3074686      8.61%     91.38% # Number of instructions issued per FU type, per thread (Count)
system.cpu.statIssuedInstType_0::FloatMemRead      2047187      5.73%     97.11% # Number of instructions issued per FU type, per thread (Count)
system.cpu.statIssuedInstType_0::FloatMemWrite      1032475      2.89%    100.00% # Number of instructions issued per FU type, per thread (Count)
system.cpu.statIssuedInstType_0::IprAccess            0      0.00%    100.00% # Number of instructions issued per FU type, per thread (Count)
system.cpu.statIssuedInstType_0::InstPrefetch            0      0.00%    100.00% # Number of instructions issued per FU type, per thread (Count)
system.cpu.statIssuedInstType_0::total       35723226                       # Number of instructions issued per FU type, per thread (Count)
system.cpu.issueRate                         3.249674                       # Inst issue rate ((Count/Cycle))
system.cpu.fuBusy                              176120                       # FU busy when requested (Count)
system.cpu.fuBusyRate                        0.004930                       # FU busy rate (busy events/executed inst) ((Count/Count))
system.cpu.intInstQueueReads                 72162411                       # Number of integer instruction queue reads (Count)
system.cpu.intInstQueueWrites                31214420                       # Number of integer instruction queue writes (Count)
system.cpu.intInstQueueWakeupAccesses        30501483                       # Number of integer instruction queue wakeup accesses (Count)
system.cpu.fpInstQueueReads                  10348142                       # Number of floating instruction queue reads (Count)
system.cpu.fpInstQueueWrites                  5186914                       # Number of floating instruction queue writes (Count)
system.cpu.fpInstQueueWakeupAccesses          5160446                       # Number of floating instruction queue wakeup accesses (Count)
system.cpu.vecInstQueueReads                        0                       # Number of vector instruction queue reads (Count)
system.cpu.vecInstQueueWrites                       0                       # Number of vector instruction queue writes (Count)
system.cpu.vecInstQueueWakeupAccesses               0                       # Number of vector instruction queue wakeup accesses (Count)
system.cpu.intAluAccesses                    30127329                       # Number of integer alu accesses (Count)
system.cpu.fpAluAccesses                      5178013                       # Number of floating point alu accesses (Count)
system.cpu.vecAluAccesses                           0                       # Number of vector alu accesses (Count)
system.cpu.numInsts                          35688388                       # Number of executed instructions (Count)
system.cpu.numLoadInsts                       8038223                       # Number of load instructions executed (Count)
system.cpu.numSquashedInsts                     34838                       # Number of squashed instructions skipped in execute (Count)
system.cpu.numSwp                                   0                       # Number of swp insts executed (Count)
system.cpu.numNop                                   0                       # Number of nop insts executed (Count)
system.cpu.numRefs                           12141500                       # Number of memory reference insts executed (Count)
system.cpu.numBranches                        3313108                       # Number of branches executed (Count)
system.cpu.numStoreInsts                      4103277                       # Number of stores executed (Count)
system.cpu.numRate                           3.246505                       # Inst execution rate ((Count/Cycle))
system.cpu.timesIdled                            2946                       # Number of times that the entire CPU went into an idle state and unscheduled itself (Count)
system.cpu.idleCycles                          106190                       # Total number of cycles that the CPU has spent unscheduled due to idling (Cycle)
system.cpu.committedInsts                    19928472                       # Number of Instructions Simulated (Count)
system.cpu.committedOps                      35336505                       # Number of Ops (including micro ops) Simulated (Count)
system.cpu.cpi                               0.551616                       # CPI: Cycles Per Instruction ((Cycle/Count))
system.cpu.totalCpi                          0.551616                       # CPI: Total CPI of All Threads ((Cycle/Count))
system.cpu.ipc                               1.812855                       # IPC: Instructions Per Cycle ((Count/Cycle))
system.cpu.totalIpc                          1.812855                       # IPC: Total IPC of All Threads ((Count/Cycle))
system.cpu.intRegfileReads                   55763040                       # Number of integer regfile reads (Count)
system.cpu.intRegfileWrites                  24157965                       # Number of integer regfile writes (Count)
system.cpu.fpRegfileReads                     2181071                       # Number of floating regfile reads (Count)
system.cpu.fpRegfileWrites                    3611103                       # Number of floating regfile writes (Count)
system.cpu.ccRegfileReads                    10403938                       # number of cc regfile reads (Count)
system.cpu.ccRegfileWrites                    5890319                       # number of cc regfile writes (Count)
system.cpu.miscRegfileReads                  18231647                       # number of misc regfile reads (Count)
system.cpu.miscRegfileWrites                       18                       # number of misc regfile writes (Count)
system.cpu.MemDepUnit__0.insertedLoads        8059596                       # Number of loads inserted to the mem dependence unit. (Count)
system.cpu.MemDepUnit__0.insertedStores       4112858                       # Number of stores inserted to the mem dependence unit. (Count)
system.cpu.MemDepUnit__0.conflictingLoads      2571318                       # Number of conflicting loads. (Count)
system.cpu.MemDepUnit__0.conflictingStores       554600                       # Number of conflicting stores. (Count)
system.cpu.MemDepUnit__1.insertedLoads              0                       # Number of loads inserted to the mem dependence unit. (Count)
system.cpu.MemDepUnit__1.insertedStores             0                       # Number of stores inserted to the mem dependence unit. (Count)
system.cpu.MemDepUnit__1.conflictingLoads            0                       # Number of conflicting loads. (Count)
system.cpu.MemDepUnit__1.conflictingStores            0                       # Number of conflicting stores. (Count)
system.cpu.MemDepUnit__2.insertedLoads              0                       # Number of loads inserted to the mem dependence unit. (Count)
system.cpu.MemDepUnit__2.insertedStores             0                       # Number of stores inserted to the mem dependence unit. (Count)
system.cpu.MemDepUnit__2.conflictingLoads            0                       # Number of conflicting loads. (Count)
system.cpu.MemDepUnit__2.conflictingStores            0                       # Number of conflicting stores. (Count)
system.cpu.MemDepUnit__3.insertedLoads              0                       # Number of loads inserted to the mem dependence unit. (Count)
system.cpu.MemDepUnit__3.insertedStores             0                       # Number of stores inserted to the mem dependence unit. (Count)
system.cpu.MemDepUnit__3.conflictingLoads            0                       # Number of conflicting loads. (Count)
system.cpu.MemDepUnit__3.conflictingStores            0                       # Number of conflicting stores. (Count)
system.cpu.branchPred.lookups                 3382215                       # Number of BP lookups (Count)
system.cpu.branchPred.condPredicted           1646421                       # Number of conditional branches predicted (Count)
system.cpu.branchPred.condIncorrect             14909                       # Number of conditional branches incorrect (Count)
system.cpu.branchPred.BTBLookups              1382607                       # Number of BTB lookups (Count)
system.cpu.branchPred.BTBHits                 1378440                       # Number of BTB hits (Count)
system.cpu.branchPred.BTBHitRatio            0.996986                       # BTB Hit Ratio (Ratio)
system.cpu.branchPred.RASUsed                  573274                       # Number of times the RAS was used to get a target. (Count)
system.cpu.branchPred.RASIncorrect                988                       # Number of incorrect RAS predictions. (Count)
system.cpu.branchPred.indirectLookups          531165                       # Number of indirect predictor lookups. (Count)
system.cpu.branchPred.indirectHits             529780                       # Number of indirect target hits. (Count)
system.cpu.branchPred.indirectMisses             1385                       # Number of indirect misses. (Count)
system.cpu.branchPred.indirectMispredicted          320                       # Number of mispredicted indirect branches. (Count)
system.cpu.commit.commitSquashedInsts          499857                       # The number of squashed insts skipped by commit (Count)
system.cpu.commit.commitNonSpecStalls              18                       # The number of times commit has been forced to stall to communicate backwards (Count)
system.cpu.commit.branchMispredicts             13696                       # The number of times a branch was mispredicted (Count)
system.cpu.commit.numCommittedDist::samples     10814191                       # Number of insts commited each cycle (Count)
system.cpu.commit.numCommittedDist::mean     3.267605                       # Number of insts commited each cycle (Count)
system.cpu.commit.numCommittedDist::stdev     3.103742                       # Number of insts commited each cycle (Count)
system.cpu.commit.numCommittedDist::underflows            0      0.00%      0.00% # Number of insts commited each cycle (Count)
system.cpu.commit.numCommittedDist::0         3067448     28.37%     28.37% # Number of insts commited each cycle (Count)
system.cpu.commit.numCommittedDist::1          813658      7.52%     35.89% # Number of insts commited each cycle (Count)
system.cpu.commit.numCommittedDist::2         1823291     16.86%     52.75% # Number of insts commited each cycle (Count)
system.cpu.commit.numCommittedDist::3         1322926     12.23%     64.98% # Number of insts commited each cycle (Count)
system.cpu.commit.numCommittedDist::4          614515      5.68%     70.66% # Number of insts commited each cycle (Count)
system.cpu.commit.numCommittedDist::5           96546      0.89%     71.56% # Number of insts commited each cycle (Count)
system.cpu.commit.numCommittedDist::6           63423      0.59%     72.14% # Number of insts commited each cycle (Count)
system.cpu.commit.numCommittedDist::7          512913      4.74%     76.89% # Number of insts commited each cycle (Count)
system.cpu.commit.numCommittedDist::8         2499471     23.11%    100.00% # Number of insts commited each cycle (Count)
system.cpu.commit.numCommittedDist::overflows            0      0.00%    100.00% # Number of insts commited each cycle (Count)
system.cpu.commit.numCommittedDist::min_value            0                       # Number of insts commited each cycle (Count)
system.cpu.commit.numCommittedDist::max_value            8                       # Number of insts commited each cycle (Count)
system.cpu.commit.numCommittedDist::total     10814191                       # Number of insts commited each cycle (Count)
system.cpu.commit.instsCommitted             19928472                       # Number of instructions committed (Count)
system.cpu.commit.opsCommitted               35336505                       # Number of ops (including micro ops) committed (Count)
system.cpu.commit.memRefs                    12069525                       # Number of memory references committed (Count)
system.cpu.commit.loads                       7978496                       # Number of loads committed (Count)
system.cpu.commit.amos                              0                       # Number of atomic instructions committed (Count)
system.cpu.commit.membars                           0                       # Number of memory barriers committed (Count)
system.cpu.commit.branches                    3283701                       # Number of branches committed (Count)
system.cpu.commit.vectorInstructions                0                       # Number of committed Vector instructions. (Count)
system.cpu.commit.floating                    5154356                       # Number of committed floating point instructions. (Count)
system.cpu.commit.integer                    32657400                       # Number of committed integer instructions. (Count)
system.cpu.commit.functionCalls                563369                       # Number of function calls committed. (Count)
system.cpu.commit.committedInstType_0::No_OpClass       589132      1.67%      1.67% # Class of committed instruction (Count)
system.cpu.commit.committedInstType_0::IntAlu     20030699     56.69%     58.35% # Class of committed instruction (Count)
system.cpu.commit.committedInstType_0::IntMult       516165      1.46%     59.81% # Class of committed instruction (Count)
system.cpu.commit.committedInstType_0::IntDiv        53994      0.15%     59.97% # Class of committed instruction (Count)
system.cpu.commit.committedInstType_0::FloatAdd      1513865      4.28%     64.25% # Class of committed instruction (Count)
system.cpu.commit.committedInstType_0::FloatCmp            0      0.00%     64.25% # Class of committed instruction (Count)
system.cpu.commit.committedInstType_0::FloatCvt           32      0.00%     64.25% # Class of committed instruction (Count)
system.cpu.commit.committedInstType_0::FloatMult            0      0.00%     64.25% # Class of committed instruction (Count)
system.cpu.commit.committedInstType_0::FloatMultAcc            0      0.00%     64.25% # Class of committed instruction (Count)
system.cpu.commit.committedInstType_0::FloatDiv            0      0.00%     64.25% # Class of committed instruction (Count)
system.cpu.commit.committedInstType_0::FloatMisc            0      0.00%     64.25% # Class of committed instruction (Count)
system.cpu.commit.committedInstType_0::FloatSqrt            0      0.00%     64.25% # Class of committed instruction (Count)
system.cpu.commit.committedInstType_0::SimdAdd          326      0.00%     64.25% # Class of committed instruction (Count)
system.cpu.commit.committedInstType_0::SimdAddAcc            0      0.00%     64.25% # Class of committed instruction (Count)
system.cpu.commit.committedInstType_0::SimdAlu        18656      0.05%     64.30% # Class of committed instruction (Count)
system.cpu.commit.committedInstType_0::SimdCmp            0      0.00%     64.30% # Class of committed instruction (Count)
system.cpu.commit.committedInstType_0::SimdCvt        10710      0.03%     64.33% # Class of committed instruction (Count)
system.cpu.commit.committedInstType_0::SimdMisc        24811      0.07%     64.40% # Class of committed instruction (Count)
system.cpu.commit.committedInstType_0::SimdMult            0      0.00%     64.40% # Class of committed instruction (Count)
system.cpu.commit.committedInstType_0::SimdMultAcc            0      0.00%     64.40% # Class of committed instruction (Count)
system.cpu.commit.committedInstType_0::SimdShift           96      0.00%     64.41% # Class of committed instruction (Count)
system.cpu.commit.committedInstType_0::SimdShiftAcc            0      0.00%     64.41% # Class of committed instruction (Count)
system.cpu.commit.committedInstType_0::SimdDiv            0      0.00%     64.41% # Class of committed instruction (Count)
system.cpu.commit.committedInstType_0::SimdSqrt            0      0.00%     64.41% # Class of committed instruction (Count)
system.cpu.commit.committedInstType_0::SimdFloatAdd            0      0.00%     64.41% # Class of committed instruction (Count)
system.cpu.commit.committedInstType_0::SimdFloatAlu            0      0.00%     64.41% # Class of committed instruction (Count)
system.cpu.commit.committedInstType_0::SimdFloatCmp            0      0.00%     64.41% # Class of committed instruction (Count)
system.cpu.commit.committedInstType_0::SimdFloatCvt       508494      1.44%     65.84% # Class of committed instruction (Count)
system.cpu.commit.committedInstType_0::SimdFloatDiv            0      0.00%     65.84% # Class of committed instruction (Count)
system.cpu.commit.committedInstType_0::SimdFloatMisc            0      0.00%     65.84% # Class of committed instruction (Count)
system.cpu.commit.committedInstType_0::SimdFloatMult            0      0.00%     65.84% # Class of committed instruction (Count)
system.cpu.commit.committedInstType_0::SimdFloatMultAcc            0      0.00%     65.84% # Class of committed instruction (Count)
system.cpu.commit.committedInstType_0::SimdFloatSqrt            0      0.00%     65.84% # Class of committed instruction (Count)
system.cpu.commit.committedInstType_0::SimdReduceAdd            0      0.00%     65.84% # Class of committed instruction (Count)
system.cpu.commit.committedInstType_0::SimdReduceAlu            0      0.00%     65.84% # Class of committed instruction (Count)
system.cpu.commit.committedInstType_0::SimdReduceCmp            0      0.00%     65.84% # Class of committed instruction (Count)
system.cpu.commit.committedInstType_0::SimdFloatReduceAdd            0      0.00%     65.84% # Class of committed instruction (Count)
system.cpu.commit.committedInstType_0::SimdFloatReduceCmp            0      0.00%     65.84% # Class of committed instruction (Count)
system.cpu.commit.committedInstType_0::SimdAes            0      0.00%     65.84% # Class of committed instruction (Count)
system.cpu.commit.committedInstType_0::SimdAesMix            0      0.00%     65.84% # Class of committed instruction (Count)
system.cpu.commit.committedInstType_0::SimdSha1Hash            0      0.00%     65.84% # Class of committed instruction (Count)
system.cpu.commit.committedInstType_0::SimdSha1Hash2            0      0.00%     65.84% # Class of committed instruction (Count)
system.cpu.commit.committedInstType_0::SimdSha256Hash            0      0.00%     65.84% # Class of committed instruction (Count)
system.cpu.commit.committedInstType_0::SimdSha256Hash2            0      0.00%     65.84% # Class of committed instruction (Count)
system.cpu.commit.committedInstType_0::SimdShaSigma2            0      0.00%     65.84% # Class of committed instruction (Count)
system.cpu.commit.committedInstType_0::SimdShaSigma3            0      0.00%     65.84% # Class of committed instruction (Count)
system.cpu.commit.committedInstType_0::SimdPredAlu            0      0.00%     65.84% # Class of committed instruction (Count)
system.cpu.commit.committedInstType_0::MemRead      5941601     16.81%     82.66% # Class of committed instruction (Count)
system.cpu.commit.committedInstType_0::MemWrite      3058838      8.66%     91.31% # Class of committed instruction (Count)
system.cpu.commit.committedInstType_0::FloatMemRead      2036895      5.76%     97.08% # Class of committed instruction (Count)
system.cpu.commit.committedInstType_0::FloatMemWrite      1032191      2.92%    100.00% # Class of committed instruction (Count)
system.cpu.commit.committedInstType_0::IprAccess            0      0.00%    100.00% # Class of committed instruction (Count)
system.cpu.commit.committedInstType_0::InstPrefetch            0      0.00%    100.00% # Class of committed instruction (Count)
system.cpu.commit.committedInstType_0::total     35336505                       # Class of committed instruction (Count)
system.cpu.commit.commitEligibleSamples       2499471                       # number cycles where commit BW limit reached (Cycle)
system.cpu.dcache.demandHits::cpu.data        7896190                       # number of demand (read+write) hits (Count)
system.cpu.dcache.demandHits::total           7896190                       # number of demand (read+write) hits (Count)
system.cpu.dcache.overallHits::cpu.data       7896190                       # number of overall hits (Count)
system.cpu.dcache.overallHits::total          7896190                       # number of overall hits (Count)
system.cpu.dcache.demandMisses::cpu.data        26709                       # number of demand (read+write) misses (Count)
system.cpu.dcache.demandMisses::total           26709                       # number of demand (read+write) misses (Count)
system.cpu.dcache.overallMisses::cpu.data        26709                       # number of overall misses (Count)
system.cpu.dcache.overallMisses::total          26709                       # number of overall misses (Count)
system.cpu.dcache.demandMissLatency::cpu.data   1590207999                       # number of demand (read+write) miss ticks (Tick)
system.cpu.dcache.demandMissLatency::total   1590207999                       # number of demand (read+write) miss ticks (Tick)
system.cpu.dcache.overallMissLatency::cpu.data   1590207999                       # number of overall miss ticks (Tick)
system.cpu.dcache.overallMissLatency::total   1590207999                       # number of overall miss ticks (Tick)
system.cpu.dcache.demandAccesses::cpu.data      7922899                       # number of demand (read+write) accesses (Count)
system.cpu.dcache.demandAccesses::total       7922899                       # number of demand (read+write) accesses (Count)
system.cpu.dcache.overallAccesses::cpu.data      7922899                       # number of overall (read+write) accesses (Count)
system.cpu.dcache.overallAccesses::total      7922899                       # number of overall (read+write) accesses (Count)
system.cpu.dcache.demandMissRate::cpu.data     0.003371                       # miss rate for demand accesses (Ratio)
system.cpu.dcache.demandMissRate::total      0.003371                       # miss rate for demand accesses (Ratio)
system.cpu.dcache.overallMissRate::cpu.data     0.003371                       # miss rate for overall accesses (Ratio)
system.cpu.dcache.overallMissRate::total     0.003371                       # miss rate for overall accesses (Ratio)
system.cpu.dcache.demandAvgMissLatency::cpu.data 59538.282938                       # average overall miss latency ((Cycle/Count))
system.cpu.dcache.demandAvgMissLatency::total 59538.282938                       # average overall miss latency ((Cycle/Count))
system.cpu.dcache.overallAvgMissLatency::cpu.data 59538.282938                       # average overall miss latency ((Cycle/Count))
system.cpu.dcache.overallAvgMissLatency::total 59538.282938                       # average overall miss latency ((Cycle/Count))
system.cpu.dcache.blockedCycles::no_mshrs        17324                       # number of cycles access was blocked (Cycle)
system.cpu.dcache.blockedCycles::no_targets           11                       # number of cycles access was blocked (Cycle)
system.cpu.dcache.blockedCauses::no_mshrs          321                       # number of times access was blocked (Count)
system.cpu.dcache.blockedCauses::no_targets            1                       # number of times access was blocked (Count)
system.cpu.dcache.avgBlocked::no_mshrs      53.968847                       # average number of cycles each access was blocked ((Cycle/Count))
system.cpu.dcache.avgBlocked::no_targets           11                       # average number of cycles each access was blocked ((Cycle/Count))
system.cpu.dcache.writebacks::writebacks         5612                       # number of writebacks (Count)
system.cpu.dcache.writebacks::total              5612                       # number of writebacks (Count)
system.cpu.dcache.demandMshrHits::cpu.data        18308                       # number of demand (read+write) MSHR hits (Count)
system.cpu.dcache.demandMshrHits::total         18308                       # number of demand (read+write) MSHR hits (Count)
system.cpu.dcache.overallMshrHits::cpu.data        18308                       # number of overall MSHR hits (Count)
system.cpu.dcache.overallMshrHits::total        18308                       # number of overall MSHR hits (Count)
system.cpu.dcache.demandMshrMisses::cpu.data         8401                       # number of demand (read+write) MSHR misses (Count)
system.cpu.dcache.demandMshrMisses::total         8401                       # number of demand (read+write) MSHR misses (Count)
system.cpu.dcache.overallMshrMisses::cpu.data         8401                       # number of overall MSHR misses (Count)
system.cpu.dcache.overallMshrMisses::total         8401                       # number of overall MSHR misses (Count)
system.cpu.dcache.demandMshrMissLatency::cpu.data    571143499                       # number of demand (read+write) MSHR miss ticks (Tick)
system.cpu.dcache.demandMshrMissLatency::total    571143499                       # number of demand (read+write) MSHR miss ticks (Tick)
system.cpu.dcache.overallMshrMissLatency::cpu.data    571143499                       # number of overall MSHR miss ticks (Tick)
system.cpu.dcache.overallMshrMissLatency::total    571143499                       # number of overall MSHR miss ticks (Tick)
system.cpu.dcache.demandMshrMissRate::cpu.data     0.001060                       # mshr miss ratio for demand accesses (Ratio)
system.cpu.dcache.demandMshrMissRate::total     0.001060                       # mshr miss ratio for demand accesses (Ratio)
system.cpu.dcache.overallMshrMissRate::cpu.data     0.001060                       # mshr miss ratio for overall accesses (Ratio)
system.cpu.dcache.overallMshrMissRate::total     0.001060                       # mshr miss ratio for overall accesses (Ratio)
system.cpu.dcache.demandAvgMshrMissLatency::cpu.data 67985.180217                       # average overall mshr miss latency ((Cycle/Count))
system.cpu.dcache.demandAvgMshrMissLatency::total 67985.180217                       # average overall mshr miss latency ((Cycle/Count))
system.cpu.dcache.overallAvgMshrMissLatency::cpu.data 67985.180217                       # average overall mshr miss latency ((Cycle/Count))
system.cpu.dcache.overallAvgMshrMissLatency::total 67985.180217                       # average overall mshr miss latency ((Cycle/Count))
system.cpu.dcache.replacements                   7376                       # number of replacements (Count)
system.cpu.dcache.ReadReq.hits::cpu.data      3808823                       # number of ReadReq hits (Count)
system.cpu.dcache.ReadReq.hits::total         3808823                       # number of ReadReq hits (Count)
system.cpu.dcache.ReadReq.misses::cpu.data        23047                       # number of ReadReq misses (Count)
system.cpu.dcache.ReadReq.misses::total         23047                       # number of ReadReq misses (Count)
system.cpu.dcache.ReadReq.missLatency::cpu.data   1384887000                       # number of ReadReq miss ticks (Tick)
system.cpu.dcache.ReadReq.missLatency::total   1384887000                       # number of ReadReq miss ticks (Tick)
system.cpu.dcache.ReadReq.accesses::cpu.data      3831870                       # number of ReadReq accesses(hits+misses) (Count)
system.cpu.dcache.ReadReq.accesses::total      3831870                       # number of ReadReq accesses(hits+misses) (Count)
system.cpu.dcache.ReadReq.missRate::cpu.data     0.006015                       # miss rate for ReadReq accesses (Ratio)
system.cpu.dcache.ReadReq.missRate::total     0.006015                       # miss rate for ReadReq accesses (Ratio)
system.cpu.dcache.ReadReq.avgMissLatency::cpu.data 60089.686293                       # average ReadReq miss latency ((Tick/Count))
system.cpu.dcache.ReadReq.avgMissLatency::total 60089.686293                       # average ReadReq miss latency ((Tick/Count))
system.cpu.dcache.ReadReq.mshrHits::cpu.data        17319                       # number of ReadReq MSHR hits (Count)
system.cpu.dcache.ReadReq.mshrHits::total        17319                       # number of ReadReq MSHR hits (Count)
system.cpu.dcache.ReadReq.mshrMisses::cpu.data         5728                       # number of ReadReq MSHR misses (Count)
system.cpu.dcache.ReadReq.mshrMisses::total         5728                       # number of ReadReq MSHR misses (Count)
system.cpu.dcache.ReadReq.mshrMissLatency::cpu.data    374718000                       # number of ReadReq MSHR miss ticks (Tick)
system.cpu.dcache.ReadReq.mshrMissLatency::total    374718000                       # number of ReadReq MSHR miss ticks (Tick)
system.cpu.dcache.ReadReq.mshrMissRate::cpu.data     0.001495                       # mshr miss rate for ReadReq accesses (Ratio)
system.cpu.dcache.ReadReq.mshrMissRate::total     0.001495                       # mshr miss rate for ReadReq accesses (Ratio)
system.cpu.dcache.ReadReq.avgMshrMissLatency::cpu.data 65418.645251                       # average ReadReq mshr miss latency ((Tick/Count))
system.cpu.dcache.ReadReq.avgMshrMissLatency::total 65418.645251                       # average ReadReq mshr miss latency ((Tick/Count))
system.cpu.dcache.WriteReq.hits::cpu.data      4087367                       # number of WriteReq hits (Count)
system.cpu.dcache.WriteReq.hits::total        4087367                       # number of WriteReq hits (Count)
system.cpu.dcache.WriteReq.misses::cpu.data         3662                       # number of WriteReq misses (Count)
system.cpu.dcache.WriteReq.misses::total         3662                       # number of WriteReq misses (Count)
system.cpu.dcache.WriteReq.missLatency::cpu.data    205320999                       # number of WriteReq miss ticks (Tick)
system.cpu.dcache.WriteReq.missLatency::total    205320999                       # number of WriteReq miss ticks (Tick)
system.cpu.dcache.WriteReq.accesses::cpu.data      4091029                       # number of WriteReq accesses(hits+misses) (Count)
system.cpu.dcache.WriteReq.accesses::total      4091029                       # number of WriteReq accesses(hits+misses) (Count)
system.cpu.dcache.WriteReq.missRate::cpu.data     0.000895                       # miss rate for WriteReq accesses (Ratio)
system.cpu.dcache.WriteReq.missRate::total     0.000895                       # miss rate for WriteReq accesses (Ratio)
system.cpu.dcache.WriteReq.avgMissLatency::cpu.data 56067.995358                       # average WriteReq miss latency ((Tick/Count))
system.cpu.dcache.WriteReq.avgMissLatency::total 56067.995358                       # average WriteReq miss latency ((Tick/Count))
system.cpu.dcache.WriteReq.mshrHits::cpu.data          989                       # number of WriteReq MSHR hits (Count)
system.cpu.dcache.WriteReq.mshrHits::total          989                       # number of WriteReq MSHR hits (Count)
system.cpu.dcache.WriteReq.mshrMisses::cpu.data         2673                       # number of WriteReq MSHR misses (Count)
system.cpu.dcache.WriteReq.mshrMisses::total         2673                       # number of WriteReq MSHR misses (Count)
system.cpu.dcache.WriteReq.mshrMissLatency::cpu.data    196425499                       # number of WriteReq MSHR miss ticks (Tick)
system.cpu.dcache.WriteReq.mshrMissLatency::total    196425499                       # number of WriteReq MSHR miss ticks (Tick)
system.cpu.dcache.WriteReq.mshrMissRate::cpu.data     0.000653                       # mshr miss rate for WriteReq accesses (Ratio)
system.cpu.dcache.WriteReq.mshrMissRate::total     0.000653                       # mshr miss rate for WriteReq accesses (Ratio)
system.cpu.dcache.WriteReq.avgMshrMissLatency::cpu.data 73485.035166                       # average WriteReq mshr miss latency ((Tick/Count))
system.cpu.dcache.WriteReq.avgMshrMissLatency::total 73485.035166                       # average WriteReq mshr miss latency ((Tick/Count))
system.cpu.dcache.power_state.pwrStateResidencyTicks::UNDEFINED   5496431500                       # Cumulative time (in ticks) in various power states (Tick)
system.cpu.dcache.tags.tagsInUse          1012.849878                       # Average ticks per tags in use ((Tick/Count))
system.cpu.dcache.tags.totalRefs              7904591                       # Total number of references to valid blocks. (Count)
system.cpu.dcache.tags.sampledRefs               8400                       # Sample count of references to valid blocks. (Count)
system.cpu.dcache.tags.avgRefs             941.022738                       # Average number of references to valid blocks. ((Count/Count))
system.cpu.dcache.tags.warmupTick              168000                       # The tick when the warmup percentage was hit. (Tick)
system.cpu.dcache.tags.occupancies::cpu.data  1012.849878                       # Average occupied blocks per tick, per requestor ((Count/Tick))
system.cpu.dcache.tags.avgOccs::cpu.data     0.989111                       # Average percentage of cache occupancy ((Ratio/Tick))
system.cpu.dcache.tags.avgOccs::total        0.989111                       # Average percentage of cache occupancy ((Ratio/Tick))
system.cpu.dcache.tags.occupanciesTaskId::1024         1024                       # Occupied blocks per task id (Count)
system.cpu.dcache.tags.ageTaskId_1024::0           47                       # Occupied blocks per task id, per block age (Count)
system.cpu.dcache.tags.ageTaskId_1024::1           12                       # Occupied blocks per task id, per block age (Count)
system.cpu.dcache.tags.ageTaskId_1024::2          708                       # Occupied blocks per task id, per block age (Count)
system.cpu.dcache.tags.ageTaskId_1024::3          257                       # Occupied blocks per task id, per block age (Count)
system.cpu.dcache.tags.ratioOccsTaskId::1024            1                       # Ratio of occupied blocks and all blocks, per task id (Ratio)
system.cpu.dcache.tags.tagAccesses           15854198                       # Number of tag accesses (Count)
system.cpu.dcache.tags.dataAccesses          15854198                       # Number of data accesses (Count)
system.cpu.dcache.tags.power_state.pwrStateResidencyTicks::UNDEFINED   5496431500                       # Cumulative time (in ticks) in various power states (Tick)
system.cpu.decode.idleCycles                  2818045                       # Number of cycles decode is idle (Cycle)
system.cpu.decode.blockedCycles               1776879                       # Number of cycles decode is blocked (Cycle)
system.cpu.decode.runCycles                   5713749                       # Number of cycles decode is running (Cycle)
system.cpu.decode.unblockCycles                562740                       # Number of cycles decode is unblocking (Cycle)
system.cpu.decode.squashCycles                  15261                       # Number of cycles decode is squashing (Cycle)
system.cpu.decode.branchResolved              1373203                       # Number of times decode resolved a branch (Count)
system.cpu.decode.branchMispred                  1610                       # Number of times decode detected a branch misprediction (Count)
system.cpu.decode.decodedInsts               36036609                       # Number of instructions handled by decode (Count)
system.cpu.decode.squashedInsts                  3835                       # Number of squashed instructions handled by decode (Count)
system.cpu.fetch.icacheStallCycles            3849311                       # Number of cycles fetch is stalled on an Icache miss (Cycle)
system.cpu.fetch.insts                       20363131                       # Number of instructions fetch has processed (Count)
system.cpu.fetch.branches                     3382215                       # Number of branches that fetch encountered (Count)
system.cpu.fetch.predictedBranches            2481494                       # Number of branches that fetch has predicted taken (Count)
system.cpu.fetch.cycles                       7017084                       # Number of cycles fetch has run and was not squashing or blocked (Cycle)
system.cpu.fetch.squashCycles                   33718                       # Number of cycles fetch has spent squashing (Cycle)
system.cpu.fetch.miscStallCycles                  410                       # Number of cycles fetch has spent waiting on interrupts, or bad addresses, or out of MSHRs (Cycle)
system.cpu.fetch.pendingTrapStallCycles          2856                       # Number of stall cycles due to pending traps (Cycle)
system.cpu.fetch.pendingQuiesceStallCycles          154                       # Number of stall cycles due to pending quiesce instructions (Cycle)
system.cpu.fetch.cacheLines                   3661209                       # Number of cache lines fetched (Count)
system.cpu.fetch.icacheSquashes                  5507                       # Number of outstanding Icache misses that were squashed (Count)
system.cpu.fetch.nisnDist::samples           10886674                       # Number of instructions fetched each cycle (Total) (Count)
system.cpu.fetch.nisnDist::mean              3.321280                       # Number of instructions fetched each cycle (Total) (Count)
system.cpu.fetch.nisnDist::stdev             3.478288                       # Number of instructions fetched each cycle (Total) (Count)
system.cpu.fetch.nisnDist::underflows               0      0.00%      0.00% # Number of instructions fetched each cycle (Total) (Count)
system.cpu.fetch.nisnDist::0                  4514184     41.47%     41.47% # Number of instructions fetched each cycle (Total) (Count)
system.cpu.fetch.nisnDist::1                  1085091      9.97%     51.43% # Number of instructions fetched each cycle (Total) (Count)
system.cpu.fetch.nisnDist::2                   108770      1.00%     52.43% # Number of instructions fetched each cycle (Total) (Count)
system.cpu.fetch.nisnDist::3                   127388      1.17%     53.60% # Number of instructions fetched each cycle (Total) (Count)
system.cpu.fetch.nisnDist::4                  1097757     10.08%     63.69% # Number of instructions fetched each cycle (Total) (Count)
system.cpu.fetch.nisnDist::5                    94325      0.87%     64.55% # Number of instructions fetched each cycle (Total) (Count)
system.cpu.fetch.nisnDist::6                   586191      5.38%     69.94% # Number of instructions fetched each cycle (Total) (Count)
system.cpu.fetch.nisnDist::7                    90640      0.83%     70.77% # Number of instructions fetched each cycle (Total) (Count)
system.cpu.fetch.nisnDist::8                  3182328     29.23%    100.00% # Number of instructions fetched each cycle (Total) (Count)
system.cpu.fetch.nisnDist::overflows                0      0.00%    100.00% # Number of instructions fetched each cycle (Total) (Count)
system.cpu.fetch.nisnDist::min_value                0                       # Number of instructions fetched each cycle (Total) (Count)
system.cpu.fetch.nisnDist::max_value                8                       # Number of instructions fetched each cycle (Total) (Count)
system.cpu.fetch.nisnDist::total             10886674                       # Number of instructions fetched each cycle (Total) (Count)
system.cpu.fetch.branchRate                  0.307674                       # Number of branch fetches per cycle (Ratio)
system.cpu.fetch.rate                        1.852395                       # Number of inst fetches per cycle ((Count/Cycle))
system.cpu.icache.demandHits::cpu.inst        3653383                       # number of demand (read+write) hits (Count)
system.cpu.icache.demandHits::total           3653383                       # number of demand (read+write) hits (Count)
system.cpu.icache.overallHits::cpu.inst       3653383                       # number of overall hits (Count)
system.cpu.icache.overallHits::total          3653383                       # number of overall hits (Count)
system.cpu.icache.demandMisses::cpu.inst         7826                       # number of demand (read+write) misses (Count)
system.cpu.icache.demandMisses::total            7826                       # number of demand (read+write) misses (Count)
system.cpu.icache.overallMisses::cpu.inst         7826                       # number of overall misses (Count)
system.cpu.icache.overallMisses::total           7826                       # number of overall misses (Count)
system.cpu.icache.demandMissLatency::cpu.inst    206108000                       # number of demand (read+write) miss ticks (Tick)
system.cpu.icache.demandMissLatency::total    206108000                       # number of demand (read+write) miss ticks (Tick)
system.cpu.icache.overallMissLatency::cpu.inst    206108000                       # number of overall miss ticks (Tick)
system.cpu.icache.overallMissLatency::total    206108000                       # number of overall miss ticks (Tick)
system.cpu.icache.demandAccesses::cpu.inst      3661209                       # number of demand (read+write) accesses (Count)
system.cpu.icache.demandAccesses::total       3661209                       # number of demand (read+write) accesses (Count)
system.cpu.icache.overallAccesses::cpu.inst      3661209                       # number of overall (read+write) accesses (Count)
system.cpu.icache.overallAccesses::total      3661209                       # number of overall (read+write) accesses (Count)
system.cpu.icache.demandMissRate::cpu.inst     0.002138                       # miss rate for demand accesses (Ratio)
system.cpu.icache.demandMissRate::total      0.002138                       # miss rate for demand accesses (Ratio)
system.cpu.icache.overallMissRate::cpu.inst     0.002138                       # miss rate for overall accesses (Ratio)
system.cpu.icache.overallMissRate::total     0.002138                       # miss rate for overall accesses (Ratio)
system.cpu.icache.demandAvgMissLatency::cpu.inst 26336.314848                       # average overall miss latency ((Cycle/Count))
system.cpu.icache.demandAvgMissLatency::total 26336.314848                       # average overall miss latency ((Cycle/Count))
system.cpu.icache.overallAvgMissLatency::cpu.inst 26336.314848                       # average overall miss latency ((Cycle/Count))
system.cpu.icache.overallAvgMissLatency::total 26336.314848                       # average overall miss latency ((Cycle/Count))
system.cpu.icache.blockedCycles::no_mshrs          289                       # number of cycles access was blocked (Cycle)
system.cpu.icache.blockedCycles::no_targets            0                       # number of cycles access was blocked (Cycle)
system.cpu.icache.blockedCauses::no_mshrs            5                       # number of times access was blocked (Count)
system.cpu.icache.blockedCauses::no_targets            0                       # number of times access was blocked (Count)
system.cpu.icache.avgBlocked::no_mshrs      57.800000                       # average number of cycles each access was blocked ((Cycle/Count))
system.cpu.icache.avgBlocked::no_targets          nan                       # average number of cycles each access was blocked ((Cycle/Count))
system.cpu.icache.demandMshrHits::cpu.inst          450                       # number of demand (read+write) MSHR hits (Count)
system.cpu.icache.demandMshrHits::total           450                       # number of demand (read+write) MSHR hits (Count)
system.cpu.icache.overallMshrHits::cpu.inst          450                       # number of overall MSHR hits (Count)
system.cpu.icache.overallMshrHits::total          450                       # number of overall MSHR hits (Count)
system.cpu.icache.demandMshrMisses::cpu.inst         7376                       # number of demand (read+write) MSHR misses (Count)
system.cpu.icache.demandMshrMisses::total         7376                       # number of demand (read+write) MSHR misses (Count)
system.cpu.icache.overallMshrMisses::cpu.inst         7376                       # number of overall MSHR misses (Count)
system.cpu.icache.overallMshrMisses::total         7376                       # number of overall MSHR misses (Count)
system.cpu.icache.demandMshrMissLatency::cpu.inst    173049500                       # number of demand (read+write) MSHR miss ticks (Tick)
system.cpu.icache.demandMshrMissLatency::total    173049500                       # number of demand (read+write) MSHR miss ticks (Tick)
system.cpu.icache.overallMshrMissLatency::cpu.inst    173049500                       # number of overall MSHR miss ticks (Tick)
system.cpu.icache.overallMshrMissLatency::total    173049500                       # number of overall MSHR miss ticks (Tick)
system.cpu.icache.demandMshrMissRate::cpu.inst     0.002015                       # mshr miss ratio for demand accesses (Ratio)
system.cpu.icache.demandMshrMissRate::total     0.002015                       # mshr miss ratio for demand accesses (Ratio)
system.cpu.icache.overallMshrMissRate::cpu.inst     0.002015                       # mshr miss ratio for overall accesses (Ratio)
system.cpu.icache.overallMshrMissRate::total     0.002015                       # mshr miss ratio for overall accesses (Ratio)
system.cpu.icache.demandAvgMshrMissLatency::cpu.inst 23461.157809                       # average overall mshr miss latency ((Cycle/Count))
system.cpu.icache.demandAvgMshrMissLatency::total 23461.157809                       # average overall mshr miss latency ((Cycle/Count))
system.cpu.icache.overallAvgMshrMissLatency::cpu.inst 23461.157809                       # average overall mshr miss latency ((Cycle/Count))
system.cpu.icache.overallAvgMshrMissLatency::total 23461.157809                       # average overall mshr miss latency ((Cycle/Count))
system.cpu.icache.replacements                   6862                       # number of replacements (Count)
system.cpu.icache.ReadReq.hits::cpu.inst      3653383                       # number of ReadReq hits (Count)
system.cpu.icache.ReadReq.hits::total         3653383                       # number of ReadReq hits (Count)
system.cpu.icache.ReadReq.misses::cpu.inst         7826                       # number of ReadReq misses (Count)
system.cpu.icache.ReadReq.misses::total          7826                       # number of ReadReq misses (Count)
system.cpu.icache.ReadReq.missLatency::cpu.inst    206108000                       # number of ReadReq miss ticks (Tick)
system.cpu.icache.ReadReq.missLatency::total    206108000                       # number of ReadReq miss ticks (Tick)
system.cpu.icache.ReadReq.accesses::cpu.inst      3661209                       # number of ReadReq accesses(hits+misses) (Count)
system.cpu.icache.ReadReq.accesses::total      3661209                       # number of ReadReq accesses(hits+misses) (Count)
system.cpu.icache.ReadReq.missRate::cpu.inst     0.002138                       # miss rate for ReadReq accesses (Ratio)
system.cpu.icache.ReadReq.missRate::total     0.002138                       # miss rate for ReadReq accesses (Ratio)
system.cpu.icache.ReadReq.avgMissLatency::cpu.inst 26336.314848                       # average ReadReq miss latency ((Tick/Count))
system.cpu.icache.ReadReq.avgMissLatency::total 26336.314848                       # average ReadReq miss latency ((Tick/Count))
system.cpu.icache.ReadReq.mshrHits::cpu.inst          450                       # number of ReadReq MSHR hits (Count)
system.cpu.icache.ReadReq.mshrHits::total          450                       # number of ReadReq MSHR hits (Count)
system.cpu.icache.ReadReq.mshrMisses::cpu.inst         7376                       # number of ReadReq MSHR misses (Count)
system.cpu.icache.ReadReq.mshrMisses::total         7376                       # number of ReadReq MSHR misses (Count)
system.cpu.icache.ReadReq.mshrMissLatency::cpu.inst    173049500                       # number of ReadReq MSHR miss ticks (Tick)
system.cpu.icache.ReadReq.mshrMissLatency::total    173049500                       # number of ReadReq MSHR miss ticks (Tick)
system.cpu.icache.ReadReq.mshrMissRate::cpu.inst     0.002015                       # mshr miss rate for ReadReq accesses (Ratio)
system.cpu.icache.ReadReq.mshrMissRate::total     0.002015                       # mshr miss rate for ReadReq accesses (Ratio)
system.cpu.icache.ReadReq.avgMshrMissLatency::cpu.inst 23461.157809                       # average ReadReq mshr miss latency ((Tick/Count))
system.cpu.icache.ReadReq.avgMshrMissLatency::total 23461.157809                       # average ReadReq mshr miss latency ((Tick/Count))
system.cpu.icache.power_state.pwrStateResidencyTicks::UNDEFINED   5496431500                       # Cumulative time (in ticks) in various power states (Tick)
system.cpu.icache.tags.tagsInUse           487.648867                       # Average ticks per tags in use ((Tick/Count))
system.cpu.icache.tags.totalRefs              3660758                       # Total number of references to valid blocks. (Count)
system.cpu.icache.tags.sampledRefs               7375                       # Sample count of references to valid blocks. (Count)
system.cpu.icache.tags.avgRefs             496.373966                       # Average number of references to valid blocks. ((Count/Count))
system.cpu.icache.tags.warmupTick               82000                       # The tick when the warmup percentage was hit. (Tick)
system.cpu.icache.tags.occupancies::cpu.inst   487.648867                       # Average occupied blocks per tick, per requestor ((Count/Tick))
system.cpu.icache.tags.avgOccs::cpu.inst     0.952439                       # Average percentage of cache occupancy ((Ratio/Tick))
system.cpu.icache.tags.avgOccs::total        0.952439                       # Average percentage of cache occupancy ((Ratio/Tick))
system.cpu.icache.tags.occupanciesTaskId::1024          512                       # Occupied blocks per task id (Count)
system.cpu.icache.tags.ageTaskId_1024::0          100                       # Occupied blocks per task id, per block age (Count)
system.cpu.icache.tags.ageTaskId_1024::2          145                       # Occupied blocks per task id, per block age (Count)
system.cpu.icache.tags.ageTaskId_1024::3          267                       # Occupied blocks per task id, per block age (Count)
system.cpu.icache.tags.ratioOccsTaskId::1024            1                       # Ratio of occupied blocks and all blocks, per task id (Ratio)
system.cpu.icache.tags.tagAccesses            7329793                       # Number of tag accesses (Count)
system.cpu.icache.tags.dataAccesses           7329793                       # Number of data accesses (Count)
system.cpu.icache.tags.power_state.pwrStateResidencyTicks::UNDEFINED   5496431500                       # Cumulative time (in ticks) in various power states (Tick)
system.cpu.iew.idleCycles                           0                       # Number of cycles IEW is idle (Cycle)
system.cpu.iew.squashCycles                     15261                       # Number of cycles IEW is squashing (Cycle)
system.cpu.iew.blockCycles                     247740                       # Number of cycles IEW is blocking (Cycle)
system.cpu.iew.unblockCycles                     8597                       # Number of cycles IEW is unblocking (Cycle)
system.cpu.iew.dispatchedInsts               35868672                       # Number of instructions dispatched to IQ (Count)
system.cpu.iew.dispSquashedInsts                  421                       # Number of squashed instructions skipped by dispatch (Count)
system.cpu.iew.dispLoadInsts                  8059596                       # Number of dispatched load instructions (Count)
system.cpu.iew.dispStoreInsts                 4112858                       # Number of dispatched store instructions (Count)
system.cpu.iew.dispNonSpecInsts                    32                       # Number of dispatched non-speculative instructions (Count)
system.cpu.iew.iqFullEvents                      1377                       # Number of times the IQ has become full, causing a stall (Count)
system.cpu.iew.lsqFullEvents                     6123                       # Number of times the LSQ has become full, causing a stall (Count)
system.cpu.iew.memOrderViolationEvents            524                       # Number of memory order violations (Count)
system.cpu.iew.predictedTakenIncorrect           5169                       # Number of branches that were predicted taken incorrectly (Count)
system.cpu.iew.predictedNotTakenIncorrect         9511                       # Number of branches that were predicted not taken incorrectly (Count)
system.cpu.iew.branchMispredicts                14680                       # Number of branch mispredicts detected at execute (Count)
system.cpu.iew.instsToCommit                 35668084                       # Cumulative count of insts sent to commit (Count)
system.cpu.iew.writebackCount                35661929                       # Cumulative count of insts written-back (Count)
system.cpu.iew.producerInst                  23301353                       # Number of instructions producing a value (Count)
system.cpu.iew.consumerInst                  31793797                       # Number of instructions consuming a value (Count)
system.cpu.iew.wbRate                        3.244098                       # Insts written-back per cycle ((Count/Cycle))
system.cpu.iew.wbFanout                      0.732890                       # Average fanout of values written-back ((Count/Count))
system.cpu.interrupts.clk_domain.clock           8000                       # Clock period in ticks (Tick)
system.cpu.l2cache.demandHits::cpu.inst          6007                       # number of demand (read+write) hits (Count)
system.cpu.l2cache.demandHits::cpu.data          1153                       # number of demand (read+write) hits (Count)
system.cpu.l2cache.demandHits::total             7160                       # number of demand (read+write) hits (Count)
system.cpu.l2cache.overallHits::cpu.inst         6007                       # number of overall hits (Count)
system.cpu.l2cache.overallHits::cpu.data         1153                       # number of overall hits (Count)
system.cpu.l2cache.overallHits::total            7160                       # number of overall hits (Count)
system.cpu.l2cache.demandMisses::cpu.inst         1368                       # number of demand (read+write) misses (Count)
system.cpu.l2cache.demandMisses::cpu.data         7247                       # number of demand (read+write) misses (Count)
system.cpu.l2cache.demandMisses::total           8615                       # number of demand (read+write) misses (Count)
system.cpu.l2cache.overallMisses::cpu.inst         1368                       # number of overall misses (Count)
system.cpu.l2cache.overallMisses::cpu.data         7247                       # number of overall misses (Count)
system.cpu.l2cache.overallMisses::total          8615                       # number of overall misses (Count)
system.cpu.l2cache.demandMissLatency::cpu.inst     98906500                       # number of demand (read+write) miss ticks (Tick)
system.cpu.l2cache.demandMissLatency::cpu.data    546368000                       # number of demand (read+write) miss ticks (Tick)
system.cpu.l2cache.demandMissLatency::total    645274500                       # number of demand (read+write) miss ticks (Tick)
system.cpu.l2cache.overallMissLatency::cpu.inst     98906500                       # number of overall miss ticks (Tick)
system.cpu.l2cache.overallMissLatency::cpu.data    546368000                       # number of overall miss ticks (Tick)
system.cpu.l2cache.overallMissLatency::total    645274500                       # number of overall miss ticks (Tick)
system.cpu.l2cache.demandAccesses::cpu.inst         7375                       # number of demand (read+write) accesses (Count)
system.cpu.l2cache.demandAccesses::cpu.data         8400                       # number of demand (read+write) accesses (Count)
system.cpu.l2cache.demandAccesses::total        15775                       # number of demand (read+write) accesses (Count)
system.cpu.l2cache.overallAccesses::cpu.inst         7375                       # number of overall (read+write) accesses (Count)
system.cpu.l2cache.overallAccesses::cpu.data         8400                       # number of overall (read+write) accesses (Count)
system.cpu.l2cache.overallAccesses::total        15775                       # number of overall (read+write) accesses (Count)
system.cpu.l2cache.demandMissRate::cpu.inst     0.185492                       # miss rate for demand accesses (Ratio)
system.cpu.l2cache.demandMissRate::cpu.data     0.862738                       # miss rate for demand accesses (Ratio)
system.cpu.l2cache.demandMissRate::total     0.546117                       # miss rate for demand accesses (Ratio)
system.cpu.l2cache.overallMissRate::cpu.inst     0.185492                       # miss rate for overall accesses (Ratio)
system.cpu.l2cache.overallMissRate::cpu.data     0.862738                       # miss rate for overall accesses (Ratio)
system.cpu.l2cache.overallMissRate::total     0.546117                       # miss rate for overall accesses (Ratio)
system.cpu.l2cache.demandAvgMissLatency::cpu.inst 72300.073099                       # average overall miss latency ((Cycle/Count))
system.cpu.l2cache.demandAvgMissLatency::cpu.data 75392.300262                       # average overall miss latency ((Cycle/Count))
system.cpu.l2cache.demandAvgMissLatency::total 74901.276843                       # average overall miss latency ((Cycle/Count))
system.cpu.l2cache.overallAvgMissLatency::cpu.inst 72300.073099                       # average overall miss latency ((Cycle/Count))
system.cpu.l2cache.overallAvgMissLatency::cpu.data 75392.300262                       # average overall miss latency ((Cycle/Count))
system.cpu.l2cache.overallAvgMissLatency::total 74901.276843                       # average overall miss latency ((Cycle/Count))
system.cpu.l2cache.blockedCycles::no_mshrs            0                       # number of cycles access was blocked (Cycle)
system.cpu.l2cache.blockedCycles::no_targets            0                       # number of cycles access was blocked (Cycle)
system.cpu.l2cache.blockedCauses::no_mshrs            0                       # number of times access was blocked (Count)
system.cpu.l2cache.blockedCauses::no_targets            0                       # number of times access was blocked (Count)
system.cpu.l2cache.avgBlocked::no_mshrs           nan                       # average number of cycles each access was blocked ((Cycle/Count))
system.cpu.l2cache.avgBlocked::no_targets          nan                       # average number of cycles each access was blocked ((Cycle/Count))
system.cpu.l2cache.writebacks::writebacks         3741                       # number of writebacks (Count)
system.cpu.l2cache.writebacks::total             3741                       # number of writebacks (Count)
system.cpu.l2cache.demandMshrMisses::cpu.inst         1368                       # number of demand (read+write) MSHR misses (Count)
system.cpu.l2cache.demandMshrMisses::cpu.data         7247                       # number of demand (read+write) MSHR misses (Count)
system.cpu.l2cache.demandMshrMisses::total         8615                       # number of demand (read+write) MSHR misses (Count)
system.cpu.l2cache.overallMshrMisses::cpu.inst         1368                       # number of overall MSHR misses (Count)
system.cpu.l2cache.overallMshrMisses::cpu.data         7247                       # number of overall MSHR misses (Count)
system.cpu.l2cache.overallMshrMisses::total         8615                       # number of overall MSHR misses (Count)
system.cpu.l2cache.demandMshrMissLatency::cpu.inst     85236500                       # number of demand (read+write) MSHR miss ticks (Tick)
system.cpu.l2cache.demandMshrMissLatency::cpu.data    473898000                       # number of demand (read+write) MSHR miss ticks (Tick)
system.cpu.l2cache.demandMshrMissLatency::total    559134500                       # number of demand (read+write) MSHR miss ticks (Tick)
system.cpu.l2cache.overallMshrMissLatency::cpu.inst     85236500                       # number of overall MSHR miss ticks (Tick)
system.cpu.l2cache.overallMshrMissLatency::cpu.data    473898000                       # number of overall MSHR miss ticks (Tick)
system.cpu.l2cache.overallMshrMissLatency::total    559134500                       # number of overall MSHR miss ticks (Tick)
system.cpu.l2cache.demandMshrMissRate::cpu.inst     0.185492                       # mshr miss ratio for demand accesses (Ratio)
system.cpu.l2cache.demandMshrMissRate::cpu.data     0.862738                       # mshr miss ratio for demand accesses (Ratio)
[...]
system.mem_ctrl.dram.numReads::cpu.inst          1367                       # Number of read requests responded to by this memory (Count)
system.mem_ctrl.dram.numReads::cpu.data          7247                       # Number of read requests responded to by this memory (Count)
system.mem_ctrl.dram.numReads::total             8614                       # Number of read requests responded to by this memory (Count)
system.mem_ctrl.dram.numWrites::writebacks         3741                       # Number of write requests responded to by this memory (Count)
system.mem_ctrl.dram.numWrites::total            3741                       # Number of write requests responded to by this memory (Count)
system.mem_ctrl.dram.bwRead::cpu.inst        15917236                       # Total read bandwidth from this memory ((Byte/Second))
system.mem_ctrl.dram.bwRead::cpu.data        84383477                       # Total read bandwidth from this memory ((Byte/Second))
system.mem_ctrl.dram.bwRead::total          100300713                       # Total read bandwidth from this memory ((Byte/Second))
system.mem_ctrl.dram.bwInstRead::cpu.inst     15917236                       # Instruction read bandwidth from this memory ((Byte/Second))
system.mem_ctrl.dram.bwInstRead::total       15917236                       # Instruction read bandwidth from this memory ((Byte/Second))
system.mem_ctrl.dram.bwWrite::writebacks     43559899                       # Write bandwidth from this memory ((Byte/Second))
system.mem_ctrl.dram.bwWrite::total          43559899                       # Write bandwidth from this memory ((Byte/Second))
system.mem_ctrl.dram.bwTotal::writebacks     43559899                       # Total bandwidth to/from this memory ((Byte/Second))
system.mem_ctrl.dram.bwTotal::cpu.inst       15917236                       # Total bandwidth to/from this memory ((Byte/Second))
system.mem_ctrl.dram.bwTotal::cpu.data       84383477                       # Total bandwidth to/from this memory ((Byte/Second))
system.mem_ctrl.dram.bwTotal::total         143860612                       # Total bandwidth to/from this memory ((Byte/Second))
system.mem_ctrl.dram.readBursts                  8580                       # Number of DRAM read bursts (Count)
system.mem_ctrl.dram.writeBursts                 3719                       # Number of DRAM write bursts (Count)
system.mem_ctrl.dram.perBankRdBursts::0           732                       # Per bank write bursts (Count)
system.mem_ctrl.dram.perBankRdBursts::1           707                       # Per bank write bursts (Count)
system.mem_ctrl.dram.perBankRdBursts::2           949                       # Per bank write bursts (Count)
system.mem_ctrl.dram.perBankRdBursts::3           419                       # Per bank write bursts (Count)
system.mem_ctrl.dram.perBankRdBursts::4           487                       # Per bank write bursts (Count)
system.mem_ctrl.dram.perBankRdBursts::5           333                       # Per bank write bursts (Count)
system.mem_ctrl.dram.perBankRdBursts::6           347                       # Per bank write bursts (Count)
system.mem_ctrl.dram.perBankRdBursts::7           364                       # Per bank write bursts (Count)
system.mem_ctrl.dram.perBankRdBursts::8           309                       # Per bank write bursts (Count)
system.mem_ctrl.dram.perBankRdBursts::9           543                       # Per bank write bursts (Count)
system.mem_ctrl.dram.perBankRdBursts::10          593                       # Per bank write bursts (Count)
system.mem_ctrl.dram.perBankRdBursts::11          542                       # Per bank write bursts (Count)
system.mem_ctrl.dram.perBankRdBursts::12          493                       # Per bank write bursts (Count)
system.mem_ctrl.dram.perBankRdBursts::13          517                       # Per bank write bursts (Count)
system.mem_ctrl.dram.perBankRdBursts::14          551                       # Per bank write bursts (Count)
system.mem_ctrl.dram.perBankRdBursts::15          694                       # Per bank write bursts (Count)
system.mem_ctrl.dram.perBankWrBursts::0           340                       # Per bank write bursts (Count)
system.mem_ctrl.dram.perBankWrBursts::1           311                       # Per bank write bursts (Count)
system.mem_ctrl.dram.perBankWrBursts::2           575                       # Per bank write bursts (Count)
system.mem_ctrl.dram.perBankWrBursts::3           107                       # Per bank write bursts (Count)
system.mem_ctrl.dram.perBankWrBursts::4           138                       # Per bank write bursts (Count)
system.mem_ctrl.dram.perBankWrBursts::5           126                       # Per bank write bursts (Count)
system.mem_ctrl.dram.perBankWrBursts::6           128                       # Per bank write bursts (Count)
system.mem_ctrl.dram.perBankWrBursts::7           116                       # Per bank write bursts (Count)
system.mem_ctrl.dram.perBankWrBursts::8            89                       # Per bank write bursts (Count)
system.mem_ctrl.dram.perBankWrBursts::9           189                       # Per bank write bursts (Count)
system.mem_ctrl.dram.perBankWrBursts::10          315                       # Per bank write bursts (Count)
system.mem_ctrl.dram.perBankWrBursts::11          193                       # Per bank write bursts (Count)
system.mem_ctrl.dram.perBankWrBursts::12          203                       # Per bank write bursts (Count)
system.mem_ctrl.dram.perBankWrBursts::13          258                       # Per bank write bursts (Count)
system.mem_ctrl.dram.perBankWrBursts::14          273                       # Per bank write bursts (Count)
system.mem_ctrl.dram.perBankWrBursts::15          358                       # Per bank write bursts (Count)
system.mem_ctrl.dram.totQLat                 90730750                       # Total ticks spent queuing (Tick)
system.mem_ctrl.dram.totBusLat               42900000                       # Total ticks spent in databus transfers (Tick)
system.mem_ctrl.dram.totMemAccLat           251605750                       # Total ticks spent from burst creation until serviced by the DRAM (Tick)
system.mem_ctrl.dram.avgQLat                 10574.68                       # Average queueing delay per DRAM burst ((Tick/Count))
system.mem_ctrl.dram.avgBusLat                5000.00                       # Average bus latency per DRAM burst ((Tick/Count))
system.mem_ctrl.dram.avgMemAccLat            29324.68                       # Average memory access latency per DRAM burst ((Tick/Count))
system.mem_ctrl.dram.readRowHits                 7042                       # Number of row buffer hits during reads (Count)
system.mem_ctrl.dram.writeRowHits                3289                       # Number of row buffer hits during writes (Count)
system.mem_ctrl.dram.readRowHitRate             82.07                       # Row buffer hit rate for reads (Ratio)
system.mem_ctrl.dram.writeRowHitRate            88.44                       # Row buffer hit rate for writes (Ratio)
system.mem_ctrl.dram.bytesPerActivate::samples         1954                       # Bytes accessed per row activation (Byte)
system.mem_ctrl.dram.bytesPerActivate::mean   400.278403                       # Bytes accessed per row activation (Byte)
system.mem_ctrl.dram.bytesPerActivate::gmean   265.953534                       # Bytes accessed per row activation (Byte)
system.mem_ctrl.dram.bytesPerActivate::stdev   339.740023                       # Bytes accessed per row activation (Byte)
system.mem_ctrl.dram.bytesPerActivate::0-127          379     19.40%     19.40% # Bytes accessed per row activation (Byte)
system.mem_ctrl.dram.bytesPerActivate::128-255          539     27.58%     46.98% # Bytes accessed per row activation (Byte)
system.mem_ctrl.dram.bytesPerActivate::256-383          180      9.21%     56.19% # Bytes accessed per row activation (Byte)
system.mem_ctrl.dram.bytesPerActivate::384-511          276     14.12%     70.32% # Bytes accessed per row activation (Byte)
system.mem_ctrl.dram.bytesPerActivate::512-639          100      5.12%     75.44% # Bytes accessed per row activation (Byte)
system.mem_ctrl.dram.bytesPerActivate::640-767           67      3.43%     78.86% # Bytes accessed per row activation (Byte)
system.mem_ctrl.dram.bytesPerActivate::768-895           53      2.71%     81.58% # Bytes accessed per row activation (Byte)
system.mem_ctrl.dram.bytesPerActivate::896-1023           46      2.35%     83.93% # Bytes accessed per row activation (Byte)
system.mem_ctrl.dram.bytesPerActivate::1024-1151          314     16.07%    100.00% # Bytes accessed per row activation (Byte)
system.mem_ctrl.dram.bytesPerActivate::total         1954                       # Bytes accessed per row activation (Byte)
system.mem_ctrl.dram.bytesRead                 549120                       # Total bytes read (Byte)
system.mem_ctrl.dram.bytesWritten              238016                       # Total bytes written (Byte)
system.mem_ctrl.dram.avgRdBW                99.904820                       # Average DRAM read bandwidth in MiBytes/s ((Byte/Second))
system.mem_ctrl.dram.avgWrBW                43.303733                       # Average DRAM write bandwidth in MiBytes/s ((Byte/Second))
system.mem_ctrl.dram.peakBW                  12800.00                       # Theoretical peak bandwidth in MiByte/s ((Byte/Second))
system.mem_ctrl.dram.busUtil                     1.12                       # Data bus utilization in percentage (Ratio)
system.mem_ctrl.dram.busUtilRead                 0.78                       # Data bus utilization in percentage for reads (Ratio)
system.mem_ctrl.dram.busUtilWrite                0.34                       # Data bus utilization in percentage for writes (Ratio)
system.mem_ctrl.dram.pageHitRate                84.00                       # Row buffer hit rate, read and write combined (Ratio)
system.mem_ctrl.dram.power_state.pwrStateResidencyTicks::UNDEFINED   5496431500                       # Cumulative time (in ticks) in various power states (Tick)
system.mem_ctrl.dram.rank0.actEnergy          7325640                       # Energy for activate commands per rank (pJ) (Joule)
system.mem_ctrl.dram.rank0.preEnergy          3867105                       # Energy for precharge commands per rank (pJ) (Joule)
system.mem_ctrl.dram.rank0.readEnergy        30973320                       # Energy for read commands per rank (pJ) (Joule)
system.mem_ctrl.dram.rank0.writeEnergy        9610020                       # Energy for write commands per rank (pJ) (Joule)
system.mem_ctrl.dram.rank0.refreshEnergy 433321200.000000                       # Energy for refresh commands per rank (pJ) (Joule)
system.mem_ctrl.dram.rank0.actBackEnergy   1055747160                       # Energy for active background per rank (pJ) (Joule)
system.mem_ctrl.dram.rank0.preBackEnergy   1221579840                       # Energy for precharge background per rank (pJ) (Joule)
system.mem_ctrl.dram.rank0.actPowerDownEnergy            0                       # Energy for active power-down per rank (pJ) (Joule)
system.mem_ctrl.dram.rank0.prePowerDownEnergy            0                       # Energy for precharge power-down per rank (pJ) (Joule)
system.mem_ctrl.dram.rank0.selfRefreshEnergy            0                       # Energy for self refresh per rank (pJ) (Joule)
system.mem_ctrl.dram.rank0.totalEnergy     2762424285                       # Total energy per rank (pJ) (Joule)
system.mem_ctrl.dram.rank0.averagePower    502.585047                       # Core power per rank (mW) (Watt)
system.mem_ctrl.dram.rank0.totalIdleTime            0                       # Total Idle time Per DRAM Rank (Tick)
system.mem_ctrl.dram.rank0.pwrStateTime::IDLE   3163871000                       # Time in different power states (Tick)
system.mem_ctrl.dram.rank0.pwrStateTime::REF    183300000                       # Time in different power states (Tick)
system.mem_ctrl.dram.rank0.pwrStateTime::SREF            0                       # Time in different power states (Tick)
system.mem_ctrl.dram.rank0.pwrStateTime::PRE_PDN            0                       # Time in different power states (Tick)
system.mem_ctrl.dram.rank0.pwrStateTime::ACT   2149260500                       # Time in different power states (Tick)
system.mem_ctrl.dram.rank0.pwrStateTime::ACT_PDN            0                       # Time in different power states (Tick)
system.mem_ctrl.dram.rank1.actEnergy          6725880                       # Energy for activate commands per rank (pJ) (Joule)
system.mem_ctrl.dram.rank1.preEnergy          3548325                       # Energy for precharge commands per rank (pJ) (Joule)
system.mem_ctrl.dram.rank1.readEnergy        30287880                       # Energy for read commands per rank (pJ) (Joule)
system.mem_ctrl.dram.rank1.writeEnergy        9803160                       # Energy for write commands per rank (pJ) (Joule)
system.mem_ctrl.dram.rank1.refreshEnergy 433321200.000000                       # Energy for refresh commands per rank (pJ) (Joule)
system.mem_ctrl.dram.rank1.actBackEnergy    822261480                       # Energy for active background per rank (pJ) (Joule)
system.mem_ctrl.dram.rank1.preBackEnergy   1418199360                       # Energy for precharge background per rank (pJ) (Joule)
system.mem_ctrl.dram.rank1.actPowerDownEnergy            0                       # Energy for active power-down per rank (pJ) (Joule)
system.mem_ctrl.dram.rank1.prePowerDownEnergy            0                       # Energy for precharge power-down per rank (pJ) (Joule)
system.mem_ctrl.dram.rank1.selfRefreshEnergy            0                       # Energy for self refresh per rank (pJ) (Joule)
system.mem_ctrl.dram.rank1.totalEnergy     2724147285                       # Total energy per rank (pJ) (Joule)
system.mem_ctrl.dram.rank1.averagePower    495.621074                       # Core power per rank (mW) (Watt)
system.mem_ctrl.dram.rank1.totalIdleTime            0                       # Total Idle time Per DRAM Rank (Tick)
system.mem_ctrl.dram.rank1.pwrStateTime::IDLE   3677280250                       # Time in different power states (Tick)
system.mem_ctrl.dram.rank1.pwrStateTime::REF    183300000                       # Time in different power states (Tick)
system.mem_ctrl.dram.rank1.pwrStateTime::SREF            0                       # Time in different power states (Tick)
system.mem_ctrl.dram.rank1.pwrStateTime::PRE_PDN            0                       # Time in different power states (Tick)
system.mem_ctrl.dram.rank1.pwrStateTime::ACT   1635851250                       # Time in different power states (Tick)
system.mem_ctrl.dram.rank1.pwrStateTime::ACT_PDN            0                       # Time in different power states (Tick)
system.mem_ctrl.power_state.pwrStateResidencyTicks::UNDEFINED   5496431500                       # Cumulative time (in ticks) in various power states (Tick)
system.membus.transDist::ReadResp                5976                       # Transaction distribution (Count)
system.membus.transDist::WritebackDirty          3741                       # Transaction distribution (Count)
system.membus.transDist::CleanEvict              2332                       # Transaction distribution (Count)
system.membus.transDist::UpgradeReq                 1                       # Transaction distribution (Count)
system.membus.transDist::ReadExReq               2638                       # Transaction distribution (Count)
system.membus.transDist::ReadExResp              2638                       # Transaction distribution (Count)
system.membus.transDist::ReadSharedReq           5976                       # Transaction distribution (Count)
system.membus.pktCount_system.cpu.l2cache.mem_side_port::system.mem_ctrl.port        23302                       # Packet count per connected requestor and responder (Count)
system.membus.pktCount_system.cpu.l2cache.mem_side_port::total        23302                       # Packet count per connected requestor and responder (Count)
system.membus.pktCount::total                   23302                       # Packet count per connected requestor and responder (Count)
system.membus.pktSize_system.cpu.l2cache.mem_side_port::system.mem_ctrl.port       790720                       # Cumulative packet size per connected requestor and responder (Byte)
system.membus.pktSize_system.cpu.l2cache.mem_side_port::total       790720                       # Cumulative packet size per connected requestor and responder (Byte)
system.membus.pktSize::total                   790720                       # Cumulative packet size per connected requestor and responder (Byte)
system.membus.snoops                                0                       # Total snoops (Count)
system.membus.snoopTraffic                          0                       # Total snoop traffic (Byte)
system.membus.snoopFanout::samples               8615                       # Request fanout histogram (Count)
system.membus.snoopFanout::mean                     0                       # Request fanout histogram (Count)
system.membus.snoopFanout::stdev                    0                       # Request fanout histogram (Count)
system.membus.snoopFanout::underflows               0      0.00%      0.00% # Request fanout histogram (Count)
system.membus.snoopFanout::0                     8615    100.00%    100.00% # Request fanout histogram (Count)
system.membus.snoopFanout::1                        0      0.00%    100.00% # Request fanout histogram (Count)
system.membus.snoopFanout::overflows                0      0.00%    100.00% # Request fanout histogram (Count)
system.membus.snoopFanout::min_value                0                       # Request fanout histogram (Count)
system.membus.snoopFanout::max_value                0                       # Request fanout histogram (Count)
system.membus.snoopFanout::total                 8615                       # Request fanout histogram (Count)
system.membus.power_state.pwrStateResidencyTicks::UNDEFINED   5496431500                       # Cumulative time (in ticks) in various power states (Tick)
system.membus.reqLayer2.occupancy            14826000                       # Layer occupancy (ticks) (Tick)
system.membus.reqLayer2.utilization               0.0                       # Layer utilization (Ratio)
system.membus.respLayer0.occupancy           23237750                       # Layer occupancy (ticks) (Tick)
system.membus.respLayer0.utilization              0.0                       # Layer utilization (Ratio)
system.membus.snoop_filter.totRequests          14688                       # Total number of requests made to the snoop filter. (Count)
system.membus.snoop_filter.hitSingleRequests         6077                       # Number of requests hitting in the snoop filter with a single holder of the requested data. (Count)
system.membus.snoop_filter.hitMultiRequests            0                       # Number of requests hitting in the snoop filter with multiple (>1) holders of the requested data. (Count)
system.membus.snoop_filter.totSnoops                0                       # Total number of snoops made to the snoop filter. (Count)
system.membus.snoop_filter.hitSingleSnoops            0                       # Number of snoops hitting in the snoop filter with a single holder of the requested data. (Count)
system.membus.snoop_filter.hitMultiSnoops            0                       # Number of snoops hitting in the snoop filter with multiple (>1) holders of the requested data. (Count)
system.workload.inst.arm                            0                       # number of arm instructions executed (Count)
system.workload.inst.quiesce                        0                       # number of quiesce instructions executed (Count)

---------- End Simulation Statistics   ----------
