
---------- Begin Simulation Statistics ----------
simSeconds                                   0.005602                       # Number of seconds simulated (Second)
simTicks                                   5602367000                       # Number of ticks simulated (Tick)
finalTick                                  5602367000                       # Number of ticks from beginning of simulation (restored from checkpoints and never reset) (Tick)
simFreq                                  1000000000000                       # The number of ticks per simulated second ((Tick/Second))
hostSeconds                                    137.04                       # Real time elapsed on the host (Second)
hostTickRate                                 40882577                       # The number of ticks simulated per host second (ticks/s) ((Tick/Second))
hostMemory                                    1198756                       # Number of bytes of host memory used (Byte)
simInsts                                     19928450                       # Number of instructions simulated (Count)
simOps                                       35336477                       # Number of ops (including micro ops) simulated (Count)
hostInstRate                                   145425                       # Simulator instruction rate (inst/s) ((Count/Second))
hostOpRate                                     257863                       # Simulator op (including micro ops) rate (op/s) ((Count/Second))
system.clk_domain.clock                           500                       # Clock period in ticks (Tick)
system.clk_domain.voltage_domain.voltage            1                       # Voltage in Volts (Volt)
system.cpu.numCycles                         11204735                       # Number of cpu cycles simulated (Cycle)
system.cpu.numWorkItemsStarted                      0                       # Number of work items this cpu started (Count)
system.cpu.numWorkItemsCompleted                    0                       # Number of work items this cpu completed (Count)
system.cpu.instsAdded                        36812293                       # Number of instructions added to the IQ (excludes non-spec) (Count)
system.cpu.nonSpecInstsAdded                       36                       # Number of non-speculative instructions added to the IQ (Count)
system.cpu.instsIssued                       36430252                       # Number of instructions issued (Count)
system.cpu.squashedInstsIssued                   2255                       # Number of squashed instructions issued (Count)
system.cpu.squashedInstsExamined              1475846                       # Number of squashed instructions iterated over during squash; mainly for profiling (Count)
system.cpu.squashedOperandsExamined           1724709                       # Number of squashed operands that are examined and possibly removed from graph (Count)
system.cpu.squashedNonSpecRemoved                  18                       # Number of squashed non-spec instructions that were removed (Count)
system.cpu.numIssuedDist::samples            11099545                       # Number of insts issued each cycle (Count)
system.cpu.numIssuedDist::mean               3.282139                       # Number of insts issued each cycle (Count)
system.cpu.numIssuedDist::stdev              1.991961                       # Number of insts issued each cycle (Count)
system.cpu.numIssuedDist::underflows                0      0.00%      0.00% # Number of insts issued each cycle (Count)
system.cpu.numIssuedDist::0                   1060228      9.55%      9.55% # Number of insts issued each cycle (Count)
system.cpu.numIssuedDist::1                   1263098     11.38%     20.93% # Number of insts issued each cycle (Count)
system.cpu.numIssuedDist::2                    941748      8.48%     29.42% # Number of insts issued each cycle (Count)
system.cpu.numIssuedDist::3                   3447087     31.06%     60.47% # Number of insts issued each cycle (Count)
system.cpu.numIssuedDist::4                   1740214     15.68%     76.15% # Number of insts issued each cycle (Count)
system.cpu.numIssuedDist::5                   1110271     10.00%     86.15% # Number of insts issued each cycle (Count)
system.cpu.numIssuedDist::6                    785319      7.08%     93.23% # Number of insts issued each cycle (Count)
system.cpu.numIssuedDist::7                    294368      2.65%     95.88% # Number of insts issued each cycle (Count)
system.cpu.numIssuedDist::8                    457212      4.12%    100.00% # Number of insts issued each cycle (Count)
system.cpu.numIssuedDist::overflows                 0      0.00%    100.00% # Number of insts issued each cycle (Count)
system.cpu.numIssuedDist::min_value                 0                       # Number of insts issued each cycle (Count)
system.cpu.numIssuedDist::max_value                 8                       # Number of insts issued each cycle (Count)
system.cpu.numIssuedDist::total              11099545                       # Number of insts issued each cycle (Count)
system.cpu.statFuBusy::No_OpClass                   0      0.00%      0.00% # attempts to use FU when none available (Count)
system.cpu.statFuBusy::IntAlu                  568495     95.02%     95.02% # attempts to use FU when none available (Count)
system.cpu.statFuBusy::IntMult                      0      0.00%     95.02% # attempts to use FU when none available (Count)
system.cpu.statFuBusy::IntDiv                       0      0.00%     95.02% # attempts to use FU when none available (Count)
system.cpu.statFuBusy::FloatAdd                     0      0.00%     95.02% # attempts to use FU when none available (Count)
system.cpu.statFuBusy::FloatCmp                     0      0.00%     95.02% # attempts to use FU when none available (Count)
system.cpu.statFuBusy::FloatCvt                     0      0.00%     95.02% # attempts to use FU when none available (Count)
system.cpu.statFuBusy::FloatMult                    0      0.00%     95.02% # attempts to use FU when none available (Count)
system.cpu.statFuBusy::FloatMultAcc                 0      0.00%     95.02% # attempts to use FU when none available (Count)
system.cpu.statFuBusy::FloatDiv                     0      0.00%     95.02% # attempts to use FU when none available (Count)
system.cpu.statFuBusy::FloatMisc                    0      0.00%     95.02% # attempts to use FU when none available (Count)
system.cpu.statFuBusy::FloatSqrt                    0      0.00%     95.02% # attempts to use FU when none available (Count)
system.cpu.statFuBusy::SimdAdd                      0      0.00%     95.02% # attempts to use FU when none available (Count)
system.cpu.statFuBusy::SimdAddAcc                   0      0.00%     95.02% # attempts to use FU when none available (Count)
system.cpu.statFuBusy::SimdAlu                   1015      0.17%     95.19% # attempts to use FU when none available (Count)
system.cpu.statFuBusy::SimdCmp                      0      0.00%     95.19% # attempts to use FU when none available (Count)
system.cpu.statFuBusy::SimdCvt                     19      0.00%     95.19% # attempts to use FU when none available (Count)
system.cpu.statFuBusy::SimdMisc                    10      0.00%     95.19% # attempts to use FU when none available (Count)
system.cpu.statFuBusy::SimdMult                     0      0.00%     95.19% # attempts to use FU when none available (Count)
system.cpu.statFuBusy::SimdMultAcc                  0      0.00%     95.19% # attempts to use FU when none available (Count)
system.cpu.statFuBusy::SimdShift                    0      0.00%     95.19% # attempts to use FU when none available (Count)
system.cpu.statFuBusy::SimdShiftAcc                 0      0.00%     95.19% # attempts to use FU when none available (Count)
system.cpu.statFuBusy::SimdDiv                      0      0.00%     95.19% # attempts to use FU when none available (Count)
system.cpu.statFuBusy::SimdSqrt                     0      0.00%     95.19% # attempts to use FU when none available (Count)
system.cpu.statFuBusy::SimdFloatAdd                 0      0.00%     95.19% # attempts to use FU when none available (Count)
system.cpu.statFuBusy::SimdFloatAlu                 0      0.00%     95.19% # attempts to use FU when none available (Count)
system.cpu.statFuBusy::SimdFloatCmp                 0      0.00%     95.19% # attempts to use FU when none available (Count)
system.cpu.statFuBusy::SimdFloatCvt                 0      0.00%     95.19% # attempts to use FU when none available (Count)
system.cpu.statFuBusy::SimdFloatDiv                 0      0.00%     95.19% # attempts to use FU when none available (Count)
system.cpu.statFuBusy::SimdFloatMisc                0      0.00%     95.19% # attempts to use FU when none available (Count)
system.cpu.statFuBusy::SimdFloatMult                0      0.00%     95.19% # attempts to use FU when none available (Count)
system.cpu.statFuBusy::SimdFloatMultAcc             0      0.00%     95.19% # attempts to use FU when none available (Count)
system.cpu.statFuBusy::SimdFloatSqrt                0      0.00%     95.19% # attempts to use FU when none available (Count)
system.cpu.statFuBusy::SimdReduceAdd                0      0.00%     95.19% # attempts to use FU when none available (Count)
system.cpu.statFuBusy::SimdReduceAlu                0      0.00%     95.19% # attempts to use FU when none available (Count)
system.cpu.statFuBusy::SimdReduceCmp                0      0.00%     95.19% # attempts to use FU when none available (Count)
system.cpu.statFuBusy::SimdFloatReduceAdd            0      0.00%     95.19% # attempts to use FU when none available (Count)
system.cpu.statFuBusy::SimdFloatReduceCmp            0      0.00%     95.19% # attempts to use FU when none available (Count)
system.cpu.statFuBusy::SimdAes                      0      0.00%     95.19% # attempts to use FU when none available (Count)
system.cpu.statFuBusy::SimdAesMix                   0      0.00%     95.19% # attempts to use FU when none available (Count)
system.cpu.statFuBusy::SimdSha1Hash                 0      0.00%     95.19% # attempts to use FU when none available (Count)
system.cpu.statFuBusy::SimdSha1Hash2                0      0.00%     95.19% # attempts to use FU when none available (Count)
system.cpu.statFuBusy::SimdSha256Hash               0      0.00%     95.19% # attempts to use FU when none available (Count)
system.cpu.statFuBusy::SimdSha256Hash2              0      0.00%     95.19% # attempts to use FU when none available (Count)
system.cpu.statFuBusy::SimdShaSigma2                0      0.00%     95.19% # attempts to use FU when none available (Count)
system.cpu.statFuBusy::SimdShaSigma3                0      0.00%     95.19% # attempts to use FU when none available (Count)
system.cpu.statFuBusy::SimdPredAlu                  0      0.00%     95.19% # attempts to use FU when none available (Count)
system.cpu.statFuBusy::MemRead                  18432      3.08%     98.27% # attempts to use FU when none available (Count)
system.cpu.statFuBusy::MemWrite                  4380      0.73%     99.00% # attempts to use FU when none available (Count)
system.cpu.statFuBusy::FloatMemRead              1104      0.18%     99.19% # attempts to use FU when none available (Count)
system.cpu.statFuBusy::FloatMemWrite             4861      0.81%    100.00% # attempts to use FU when none available (Count)
system.cpu.statFuBusy::IprAccess                    0      0.00%    100.00% # attempts to use FU when none available (Count)
system.cpu.statFuBusy::InstPrefetch                 0      0.00%    100.00% # attempts to use FU when none available (Count)
system.cpu.statIssuedInstType_0::No_OpClass       630414      1.73%      1.73% # Number of instructions issued per FU type, per thread (Count)
system.cpu.statIssuedInstType_0::IntAlu      20808889     57.12%     58.85% # Number of instructions issued per FU type, per thread (Count)
system.cpu.statIssuedInstType_0::IntMult       521078      1.43%     60.28% # Number of instructions issued per FU type, per thread (Count)
system.cpu.statIssuedInstType_0::IntDiv         55971      0.15%     60.43% # Number of instructions issued per FU type, per thread (Count)
system.cpu.statIssuedInstType_0::FloatAdd      1527199      4.19%     64.63% # Number of instructions issued per FU type, per thread (Count)
system.cpu.statIssuedInstType_0::FloatCmp            0      0.00%     64.63% # Number of instructions issued per FU type, per thread (Count)
system.cpu.statIssuedInstType_0::FloatCvt           32      0.00%     64.63% # Number of instructions issued per FU type, per thread (Count)
system.cpu.statIssuedInstType_0::FloatMult            0      0.00%     64.63% # Number of instructions issued per FU type, per thread (Count)
system.cpu.statIssuedInstType_0::FloatMultAcc            0      0.00%     64.63% # Number of instructions issued per FU type, per thread (Count)
system.cpu.statIssuedInstType_0::FloatDiv            0      0.00%     64.63% # Number of instructions issued per FU type, per thread (Count)
system.cpu.statIssuedInstType_0::FloatMisc            0      0.00%     64.63% # Number of instructions issued per FU type, per thread (Count)
system.cpu.statIssuedInstType_0::FloatSqrt            0      0.00%     64.63% # Number of instructions issued per FU type, per thread (Count)
system.cpu.statIssuedInstType_0::SimdAdd          439      0.00%     64.63% # Number of instructions issued per FU type, per thread (Count)
system.cpu.statIssuedInstType_0::SimdAddAcc            0      0.00%     64.63% # Number of instructions issued per FU type, per thread (Count)
system.cpu.statIssuedInstType_0::SimdAlu        18993      0.05%     64.68% # Number of instructions issued per FU type, per thread (Count)
system.cpu.statIssuedInstType_0::SimdCmp            8      0.00%     64.68% # Number of instructions issued per FU type, per thread (Count)
system.cpu.statIssuedInstType_0::SimdCvt        11039      0.03%     64.71% # Number of instructions issued per FU type, per thread (Count)
system.cpu.statIssuedInstType_0::SimdMisc        24966      0.07%     64.78% # Number of instructions issued per FU type, per thread (Count)
system.cpu.statIssuedInstType_0::SimdMult            0      0.00%     64.78% # Number of instructions issued per FU type, per thread (Count)
system.cpu.statIssuedInstType_0::SimdMultAcc            0      0.00%     64.78% # Number of instructions issued per FU type, per thread (Count)
system.cpu.statIssuedInstType_0::SimdShift          302      0.00%     64.78% # Number of instructions issued per FU type, per thread (Count)
system.cpu.statIssuedInstType_0::SimdShiftAcc            0      0.00%     64.78% # Number of instructions issued per FU type, per thread (Count)
system.cpu.statIssuedInstType_0::SimdDiv            0      0.00%     64.78% # Number of instructions issued per FU type, per thread (Count)
system.cpu.statIssuedInstType_0::SimdSqrt            0      0.00%     64.78% # Number of instructions issued per FU type, per thread (Count)
system.cpu.statIssuedInstType_0::SimdFloatAdd            0      0.00%     64.78% # Number of instructions issued per FU type, per thread (Count)
system.cpu.statIssuedInstType_0::SimdFloatAlu            0      0.00%     64.78% # Number of instructions issued per FU type, per thread (Count)
system.cpu.statIssuedInstType_0::SimdFloatCmp            0      0.00%     64.78% # Number of instructions issued per FU type, per thread (Count)
system.cpu.statIssuedInstType_0::SimdFloatCvt       509599      1.40%     66.18% # Number of instructions issued per FU type, per thread (Count)
system.cpu.statIssuedInstType_0::SimdFloatDiv            0      0.00%     66.18% # Number of instructions issued per FU type, per thread (Count)
system.cpu.statIssuedInstType_0::SimdFloatMisc            0      0.00%     66.18% # Number of instructions issued per FU type, per thread (Count)
system.cpu.statIssuedInstType_0::SimdFloatMult            0      0.00%     66.18% # Number of instructions issued per FU type, per thread (Count)
system.cpu.statIssuedInstType_0::SimdFloatMultAcc            0      0.00%     66.18% # Number of instructions issued per FU type, per thread (Count)
system.cpu.statIssuedInstType_0::SimdFloatSqrt            0      0.00%     66.18% # Number of instructions issued per FU type, per thread (Count)
system.cpu.statIssuedInstType_0::SimdReduceAdd            0      0.00%     66.18% # Number of instructions issued per FU type, per thread (Count)
system.cpu.statIssuedInstType_0::SimdReduceAlu            0      0.00%     66.18% # Number of instructions issued per FU type, per thread (Count)
system.cpu.statIssuedInstType_0::SimdReduceCmp            0      0.00%     66.18% # Number of instructions issued per FU type, per thread (Count)
system.cpu.statIssuedInstType_0::SimdFloatReduceAdd            0      0.00%     66.18% # Number of instructions issued per FU type, per thread (Count)
system.cpu.statIssuedInstType_0::SimdFloatReduceCmp            0      0.00%     66.18% # Number of instructions issued per FU type, per thread (Count)
system.cpu.statIssuedInstType_0::SimdAes            0      0.00%     66.18% # Number of instructions issued per FU type, per thread (Count)
system.cpu.statIssuedInstType_0::SimdAesMix            0      0.00%     66.18% # Number of instructions issued per FU type, per thread (Count)
system.cpu.statIssuedInstType_0::SimdSha1Hash            0      0.00%     66.18% # Number of instructions issued per FU type, per thread (Count)
system.cpu.statIssuedInstType_0::SimdSha1Hash2            0      0.00%     66.18% # Number of instructions issued per FU type, per thread (Count)
system.cpu.statIssuedInstType_0::SimdSha256Hash            0      0.00%     66.18% # Number of instructions issued per FU type, per thread (Count)
system.cpu.statIssuedInstType_0::SimdSha256Hash2            0      0.00%     66.18% # Number of instructions issued per FU type, per thread (Count)
system.cpu.statIssuedInstType_0::SimdShaSigma2            0      0.00%     66.18% # Number of instructions issued per FU type, per thread (Count)
system.cpu.statIssuedInstType_0::SimdShaSigma3            0      0.00%     66.18% # Number of instructions issued per FU type, per thread (Count)
system.cpu.statIssuedInstType_0::SimdPredAlu            0      0.00%     66.18% # Number of instructions issued per FU type, per thread (Count)
system.cpu.statIssuedInstType_0::MemRead      6109507     16.77%     82.95% # Number of instructions issued per FU type, per thread (Count)
system.cpu.statIssuedInstType_0::MemWrite      3117376      8.56%     91.51% # Number of instructions issued per FU type, per thread (Count)
system.cpu.statIssuedInstType_0::FloatMemRead      2062079      5.66%     97.17% # Number of instructions issued per FU type, per thread (Count)
system.cpu.statIssuedInstType_0::FloatMemWrite      1032361      2.83%    100.00% # Number of instructions issued per FU type, per thread (Count)
system.cpu.statIssuedInstType_0::IprAccess            0      0.00%    100.00% # Number of instructions issued per FU type, per thread (Count)
system.cpu.statIssuedInstType_0::InstPrefetch            0      0.00%    100.00% # Number of instructions issued per FU type, per thread (Count)
system.cpu.statIssuedInstType_0::total       36430252                       # Number of instructions issued per FU type, per thread (Count)
system.cpu.issueRate                         3.251327                       # Inst issue rate ((Count/Cycle))
system.cpu.fuBusy                              598316                       # FU busy when requested (Count)
system.cpu.fuBusyRate                        0.016424                       # FU busy rate (busy events/executed inst) ((Count/Count))
system.cpu.intInstQueueReads                 74162917                       # Number of integer instruction queue reads (Count)
system.cpu.intInstQueueWrites                32995349                       # Number of integer instruction queue writes (Count)
system.cpu.intInstQueueWakeupAccesses        31080883                       # Number of integer instruction queue wakeup accesses (Count)
system.cpu.fpInstQueueReads                  10397703                       # Number of floating instruction queue reads (Count)
system.cpu.fpInstQueueWrites                  5293322                       # Number of floating instruction queue writes (Count)
system.cpu.fpInstQueueWakeupAccesses          5170923                       # Number of floating instruction queue wakeup accesses (Count)
system.cpu.vecInstQueueReads                        0                       # Number of vector instruction queue reads (Count)
system.cpu.vecInstQueueWrites                       0                       # Number of vector instruction queue writes (Count)
system.cpu.vecInstQueueWakeupAccesses               0                       # Number of vector instruction queue wakeup accesses (Count)
system.cpu.intAluAccesses                    31195811                       # Number of integer alu accesses (Count)
system.cpu.fpAluAccesses                      5202343                       # Number of floating point alu accesses (Count)
system.cpu.vecAluAccesses                           0                       # Number of vector alu accesses (Count)
system.cpu.numInsts                          36316824                       # Number of executed instructions (Count)
system.cpu.numLoadInsts                       8149114                       # Number of load instructions executed (Count)
system.cpu.numSquashedInsts                    113428                       # Number of squashed instructions skipped in execute (Count)
system.cpu.numSwp                                   0                       # Number of swp insts executed (Count)
system.cpu.numNop                                   0                       # Number of nop insts executed (Count)
system.cpu.numRefs                           12289043                       # Number of memory reference insts executed (Count)
system.cpu.numBranches                        3362327                       # Number of branches executed (Count)
system.cpu.numStoreInsts                      4139929                       # Number of stores executed (Count)
system.cpu.numRate                           3.241203                       # Inst execution rate ((Count/Cycle))
system.cpu.timesIdled                            3017                       # Number of times that the entire CPU went into an idle state and unscheduled itself (Count)
system.cpu.idleCycles                          105190                       # Total number of cycles that the CPU has spent unscheduled due to idling (Cycle)
system.cpu.committedInsts                    19928450                       # Number of Instructions Simulated (Count)
system.cpu.committedOps                      35336477                       # Number of Ops (including micro ops) Simulated (Count)
system.cpu.cpi                               0.562248                       # CPI: Cycles Per Instruction ((Cycle/Count))
system.cpu.totalCpi                          0.562248                       # CPI: Total CPI of All Threads ((Cycle/Count))
system.cpu.ipc                               1.778574                       # IPC: Instructions Per Cycle ((Count/Cycle))
system.cpu.totalIpc                          1.778574                       # IPC: Total IPC of All Threads ((Count/Cycle))
system.cpu.intRegfileReads                   56538591                       # Number of integer regfile reads (Count)
system.cpu.intRegfileWrites                  24638425                       # Number of integer regfile writes (Count)
system.cpu.fpRegfileReads                     2182224                       # Number of floating regfile reads (Count)
system.cpu.fpRegfileWrites                    3621494                       # Number of floating regfile writes (Count)
system.cpu.ccRegfileReads                    10558054                       # number of cc regfile reads (Count)
system.cpu.ccRegfileWrites                    6016962                       # number of cc regfile writes (Count)
system.cpu.miscRegfileReads                  18517303                       # number of misc regfile reads (Count)
system.cpu.miscRegfileWrites                       18                       # number of misc regfile writes (Count)
system.cpu.MemDepUnit__0.insertedLoads        8209174                       # Number of loads inserted to the mem dependence unit. (Count)
system.cpu.MemDepUnit__0.insertedStores       4186661                       # Number of stores inserted to the mem dependence unit. (Count)
system.cpu.MemDepUnit__0.conflictingLoads      2587492                       # Number of conflicting loads. (Count)
system.cpu.MemDepUnit__0.conflictingStores       620735                       # Number of conflicting stores. (Count)
system.cpu.MemDepUnit__1.insertedLoads              0                       # Number of loads inserted to the mem dependence unit. (Count)
system.cpu.MemDepUnit__1.insertedStores             0                       # Number of stores inserted to the mem dependence unit. (Count)
system.cpu.MemDepUnit__1.conflictingLoads            0                       # Number of conflicting loads. (Count)
system.cpu.MemDepUnit__1.conflictingStores            0                       # Number of conflicting stores. (Count)
system.cpu.MemDepUnit__2.insertedLoads              0                       # Number of loads inserted to the mem dependence unit. (Count)
system.cpu.MemDepUnit__2.insertedStores             0                       # Number of stores inserted to the mem dependence unit. (Count)
system.cpu.MemDepUnit__2.conflictingLoads            0                       # Number of conflicting loads. (Count)
system.cpu.MemDepUnit__2.conflictingStores            0                       # Number of conflicting stores. (Count)
system.cpu.MemDepUnit__3.insertedLoads              0                       # Number of loads inserted to the mem dependence unit. (Count)
system.cpu.MemDepUnit__3.insertedStores             0                       # Number of stores inserted to the mem dependence unit. (Count)
system.cpu.MemDepUnit__3.conflictingLoads            0                       # Number of conflicting loads. (Count)
system.cpu.MemDepUnit__3.conflictingStores            0                       # Number of conflicting stores. (Count)
system.cpu.branchPred.lookups                 3550117                       # Number of BP lookups (Count)
system.cpu.branchPred.condPredicted           1742047                       # Number of conditional branches predicted (Count)
system.cpu.branchPred.condIncorrect             46733                       # Number of conditional branches incorrect (Count)
system.cpu.branchPred.BTBLookups              1454913                       # Number of BTB lookups (Count)
system.cpu.branchPred.BTBHits                 1442383                       # Number of BTB hits (Count)
system.cpu.branchPred.BTBHitRatio            0.991388                       # BTB Hit Ratio (Ratio)
system.cpu.branchPred.RASUsed                  589876                       # Number of times the RAS was used to get a target. (Count)
system.cpu.branchPred.RASIncorrect                989                       # Number of incorrect RAS predictions. (Count)
system.cpu.branchPred.indirectLookups          559929                       # Number of indirect predictor lookups. (Count)
system.cpu.branchPred.indirectHits             533630                       # Number of indirect target hits. (Count)
system.cpu.branchPred.indirectMisses            26299                       # Number of indirect misses. (Count)
system.cpu.branchPred.indirectMispredicted          300                       # Number of mispredicted indirect branches. (Count)
system.cpu.commit.commitSquashedInsts         1443695                       # The number of squashed insts skipped by commit (Count)
system.cpu.commit.commitNonSpecStalls              18                       # The number of times commit has been forced to stall to communicate backwards (Count)
system.cpu.commit.branchMispredicts             46378                       # The number of times a branch was mispredicted (Count)
system.cpu.commit.numCommittedDist::samples     10893992                       # Number of insts commited each cycle (Count)
system.cpu.commit.numCommittedDist::mean     3.243667                       # Number of insts commited each cycle (Count)
system.cpu.commit.numCommittedDist::stdev     3.101693                       # Number of insts commited each cycle (Count)
system.cpu.commit.numCommittedDist::underflows            0      0.00%      0.00% # Number of insts commited each cycle (Count)
system.cpu.commit.numCommittedDist::0         3095085     28.41%     28.41% # Number of insts commited each cycle (Count)
system.cpu.commit.numCommittedDist::1          839909      7.71%     36.12% # Number of insts commited each cycle (Count)
system.cpu.commit.numCommittedDist::2         1907643     17.51%     53.63% # Number of insts commited each cycle (Count)
system.cpu.commit.numCommittedDist::3         1271957     11.68%     65.31% # Number of insts commited each cycle (Count)
system.cpu.commit.numCommittedDist::4          619878      5.69%     71.00% # Number of insts commited each cycle (Count)
system.cpu.commit.numCommittedDist::5          100966      0.93%     71.92% # Number of insts commited each cycle (Count)
system.cpu.commit.numCommittedDist::6           64053      0.59%     72.51% # Number of insts commited each cycle (Count)
system.cpu.commit.numCommittedDist::7          459257      4.22%     76.73% # Number of insts commited each cycle (Count)
system.cpu.commit.numCommittedDist::8         2535244     23.27%    100.00% # Number of insts commited each cycle (Count)
system.cpu.commit.numCommittedDist::overflows            0      0.00%    100.00% # Number of insts commited each cycle (Count)
system.cpu.commit.numCommittedDist::min_value            0                       # Number of insts commited each cycle (Count)
system.cpu.commit.numCommittedDist::max_value            8                       # Number of insts commited each cycle (Count)
system.cpu.commit.numCommittedDist::total     10893992                       # Number of insts commited each cycle (Count)
system.cpu.commit.instsCommitted             19928450                       # Number of instructions committed (Count)
system.cpu.commit.opsCommitted               35336477                       # Number of ops (including micro ops) committed (Count)
system.cpu.commit.memRefs                    12069539                       # Number of memory references committed (Count)
system.cpu.commit.loads                       7978510                       # Number of loads committed (Count)
system.cpu.commit.amos                              0                       # Number of atomic instructions committed (Count)
system.cpu.commit.membars                           0                       # Number of memory barriers committed (Count)
system.cpu.commit.branches                    3283692                       # Number of branches committed (Count)
system.cpu.commit.vectorInstructions                0                       # Number of committed Vector instructions. (Count)
system.cpu.commit.floating                    5154398                       # Number of committed floating point instructions. (Count)
system.cpu.commit.integer                    32657360                       # Number of committed integer instructions. (Count)
system.cpu.commit.functionCalls                563369                       # Number of function calls committed. (Count)
system.cpu.commit.committedInstType_0::No_OpClass       589130      1.67%      1.67% # Class of committed instruction (Count)
system.cpu.commit.committedInstType_0::IntAlu     20030633     56.69%     58.35% # Class of committed instruction (Count)
system.cpu.commit.committedInstType_0::IntMult       516165      1.46%     59.81% # Class of committed instruction (Count)
system.cpu.commit.committedInstType_0::IntDiv        53994      0.15%     59.97% # Class of committed instruction (Count)
system.cpu.commit.committedInstType_0::FloatAdd      1513865      4.28%     64.25% # Class of committed instruction (Count)
system.cpu.commit.committedInstType_0::FloatCmp            0      0.00%     64.25% # Class of committed instruction (Count)
system.cpu.commit.committedInstType_0::FloatCvt           32      0.00%     64.25% # Class of committed instruction (Count)
system.cpu.commit.committedInstType_0::FloatMult            0      0.00%     64.25% # Class of committed instruction (Count)
system.cpu.commit.committedInstType_0::FloatMultAcc            0      0.00%     64.25% # Class of committed instruction (Count)
system.cpu.commit.committedInstType_0::FloatDiv            0      0.00%     64.25% # Class of committed instruction (Count)
system.cpu.commit.committedInstType_0::FloatMisc            0      0.00%     64.25% # Class of committed instruction (Count)
system.cpu.commit.committedInstType_0::FloatSqrt            0      0.00%     64.25% # Class of committed instruction (Count)
system.cpu.commit.committedInstType_0::SimdAdd          326      0.00%     64.25% # Class of committed instruction (Count)
system.cpu.commit.committedInstType_0::SimdAddAcc            0      0.00%     64.25% # Class of committed instruction (Count)
system.cpu.commit.committedInstType_0::SimdAlu        18662      0.05%     64.30% # Class of committed instruction (Count)
system.cpu.commit.committedInstType_0::SimdCmp            6      0.00%     64.30% # Class of committed instruction (Count)
system.cpu.commit.committedInstType_0::SimdCvt        10720      0.03%     64.33% # Class of committed instruction (Count)
system.cpu.commit.committedInstType_0::SimdMisc        24821      0.07%     64.40% # Class of committed instruction (Count)
system.cpu.commit.committedInstType_0::SimdMult            0      0.00%     64.40% # Class of committed instruction (Count)
system.cpu.commit.committedInstType_0::SimdMultAcc            0      0.00%     64.40% # Class of committed instruction (Count)
system.cpu.commit.committedInstType_0::SimdShift           90      0.00%     64.40% # Class of committed instruction (Count)
system.cpu.commit.committedInstType_0::SimdShiftAcc            0      0.00%     64.40% # Class of committed instruction (Count)
system.cpu.commit.committedInstType_0::SimdDiv            0      0.00%     64.40% # Class of committed instruction (Count)
system.cpu.commit.committedInstType_0::SimdSqrt            0      0.00%     64.40% # Class of committed instruction (Count)
system.cpu.commit.committedInstType_0::SimdFloatAdd            0      0.00%     64.40% # Class of committed instruction (Count)
system.cpu.commit.committedInstType_0::SimdFloatAlu            0      0.00%     64.40% # Class of committed instruction (Count)
system.cpu.commit.committedInstType_0::SimdFloatCmp            0      0.00%     64.40% # Class of committed instruction (Count)
system.cpu.commit.committedInstType_0::SimdFloatCvt       508494      1.44%     65.84% # Class of committed instruction (Count)
system.cpu.commit.committedInstType_0::SimdFloatDiv            0      0.00%     65.84% # Class of committed instruction (Count)
system.cpu.commit.committedInstType_0::SimdFloatMisc            0      0.00%     65.84% # Class of committed instruction (Count)
system.cpu.commit.committedInstType_0::SimdFloatMult            0      0.00%     65.84% # Class of committed instruction (Count)
system.cpu.commit.committedInstType_0::SimdFloatMultAcc            0      0.00%     65.84% # Class of committed instruction (Count)
system.cpu.commit.committedInstType_0::SimdFloatSqrt            0      0.00%     65.84% # Class of committed instruction (Count)
system.cpu.commit.committedInstType_0::SimdReduceAdd            0      0.00%     65.84% # Class of committed instruction (Count)
system.cpu.commit.committedInstType_0::SimdReduceAlu            0      0.00%     65.84% # Class of committed instruction (Count)
system.cpu.commit.committedInstType_0::SimdReduceCmp            0      0.00%     65.84% # Class of committed instruction (Count)
system.cpu.commit.committedInstType_0::SimdFloatReduceAdd            0      0.00%     65.84% # Class of committed instruction (Count)
system.cpu.commit.committedInstType_0::SimdFloatReduceCmp            0      0.00%     65.84% # Class of committed instruction (Count)
system.cpu.commit.committedInstType_0::SimdAes            0      0.00%     65.84% # Class of committed instruction (Count)
system.cpu.commit.committedInstType_0::SimdAesMix            0      0.00%     65.84% # Class of committed instruction (Count)
system.cpu.commit.committedInstType_0::SimdSha1Hash            0      0.00%     65.84% # Class of committed instruction (Count)
system.cpu.commit.committedInstType_0::SimdSha1Hash2            0      0.00%     65.84% # Class of committed instruction (Count)
system.cpu.commit.committedInstType_0::SimdSha256Hash            0      0.00%     65.84% # Class of committed instruction (Count)
system.cpu.commit.committedInstType_0::SimdSha256Hash2            0      0.00%     65.84% # Class of committed instruction (Count)
system.cpu.commit.committedInstType_0::SimdShaSigma2            0      0.00%     65.84% # Class of committed instruction (Count)
system.cpu.commit.committedInstType_0::SimdShaSigma3            0      0.00%     65.84% # Class of committed instruction (Count)
system.cpu.commit.committedInstType_0::SimdPredAlu            0      0.00%     65.84% # Class of committed instruction (Count)
system.cpu.commit.committedInstType_0::MemRead      5941599     16.81%     82.66% # Class of committed instruction (Count)
system.cpu.commit.committedInstType_0::MemWrite      3058838      8.66%     91.31% # Class of committed instruction (Count)
system.cpu.commit.committedInstType_0::FloatMemRead      2036911      5.76%     97.08% # Class of committed instruction (Count)
system.cpu.commit.committedInstType_0::FloatMemWrite      1032191      2.92%    100.00% # Class of committed instruction (Count)
system.cpu.commit.committedInstType_0::IprAccess            0      0.00%    100.00% # Class of committed instruction (Count)
system.cpu.commit.committedInstType_0::InstPrefetch            0      0.00%    100.00% # Class of committed instruction (Count)
system.cpu.commit.committedInstType_0::total     35336477                       # Class of committed instruction (Count)
system.cpu.commit.commitEligibleSamples       2535244                       # number cycles where commit BW limit reached (Cycle)
system.cpu.dcache.demandHits::cpu.data        8024963                       # number of demand (read+write) hits (Count)
system.cpu.dcache.demandHits::total           8024963                       # number of demand (read+write) hits (Count)
system.cpu.dcache.overallHits::cpu.data       8024963                       # number of overall hits (Count)
system.cpu.dcache.overallHits::total          8024963                       # number of overall hits (Count)
system.cpu.dcache.demandMisses::cpu.data        27235                       # number of demand (read+write) misses (Count)
system.cpu.dcache.demandMisses::total           27235                       # number of demand (read+write) misses (Count)
system.cpu.dcache.overallMisses::cpu.data        27235                       # number of overall misses (Count)
system.cpu.dcache.overallMisses::total          27235                       # number of overall misses (Count)
system.cpu.dcache.demandMissLatency::cpu.data   1197301000                       # number of demand (read+write) miss ticks (Tick)
system.cpu.dcache.demandMissLatency::total   1197301000                       # number of demand (read+write) miss ticks (Tick)
system.cpu.dcache.overallMissLatency::cpu.data   1197301000                       # number of overall miss ticks (Tick)
system.cpu.dcache.overallMissLatency::total   1197301000                       # number of overall miss ticks (Tick)
system.cpu.dcache.demandAccesses::cpu.data      8052198                       # number of demand (read+write) accesses (Count)
system.cpu.dcache.demandAccesses::total       8052198                       # number of demand (read+write) accesses (Count)
system.cpu.dcache.overallAccesses::cpu.data      8052198                       # number of overall (read+write) accesses (Count)
system.cpu.dcache.overallAccesses::total      8052198                       # number of overall (read+write) accesses (Count)
system.cpu.dcache.demandMissRate::cpu.data     0.003382                       # miss rate for demand accesses (Ratio)
system.cpu.dcache.demandMissRate::total      0.003382                       # miss rate for demand accesses (Ratio)
system.cpu.dcache.overallMissRate::cpu.data     0.003382                       # miss rate for overall accesses (Ratio)
system.cpu.dcache.overallMissRate::total     0.003382                       # miss rate for overall accesses (Ratio)
system.cpu.dcache.demandAvgMissLatency::cpu.data 43961.850560                       # average overall miss latency ((Cycle/Count))
system.cpu.dcache.demandAvgMissLatency::total 43961.850560                       # average overall miss latency ((Cycle/Count))
system.cpu.dcache.overallAvgMissLatency::cpu.data 43961.850560                       # average overall miss latency ((Cycle/Count))
system.cpu.dcache.overallAvgMissLatency::total 43961.850560                       # average overall miss latency ((Cycle/Count))
system.cpu.dcache.blockedCycles::no_mshrs        17284                       # number of cycles access was blocked (Cycle)
system.cpu.dcache.blockedCycles::no_targets            0                       # number of cycles access was blocked (Cycle)
system.cpu.dcache.blockedCauses::no_mshrs          314                       # number of times access was blocked (Count)
system.cpu.dcache.blockedCauses::no_targets            0                       # number of times access was blocked (Count)
system.cpu.dcache.avgBlocked::no_mshrs      55.044586                       # average number of cycles each access was blocked ((Cycle/Count))
system.cpu.dcache.avgBlocked::no_targets          nan                       # average number of cycles each access was blocked ((Cycle/Count))
system.cpu.dcache.writebacks::writebacks         5659                       # number of writebacks (Count)
system.cpu.dcache.writebacks::total              5659                       # number of writebacks (Count)
system.cpu.dcache.demandMshrHits::cpu.data        18737                       # number of demand (read+write) MSHR hits (Count)
system.cpu.dcache.demandMshrHits::total         18737                       # number of demand (read+write) MSHR hits (Count)
system.cpu.dcache.overallMshrHits::cpu.data        18737                       # number of overall MSHR hits (Count)
system.cpu.dcache.overallMshrHits::total        18737                       # number of overall MSHR hits (Count)
system.cpu.dcache.demandMshrMisses::cpu.data         8498                       # number of demand (read+write) MSHR misses (Count)
system.cpu.dcache.demandMshrMisses::total         8498                       # number of demand (read+write) MSHR misses (Count)
system.cpu.dcache.overallMshrMisses::cpu.data         8498                       # number of overall MSHR misses (Count)
system.cpu.dcache.overallMshrMisses::total         8498                       # number of overall MSHR misses (Count)
system.cpu.dcache.demandMshrMissLatency::cpu.data    490805500                       # number of demand (read+write) MSHR miss ticks (Tick)
system.cpu.dcache.demandMshrMissLatency::total    490805500                       # number of demand (read+write) MSHR miss ticks (Tick)
system.cpu.dcache.overallMshrMissLatency::cpu.data    490805500                       # number of overall MSHR miss ticks (Tick)
system.cpu.dcache.overallMshrMissLatency::total    490805500                       # number of overall MSHR miss ticks (Tick)
system.cpu.dcache.demandMshrMissRate::cpu.data     0.001055                       # mshr miss ratio for demand accesses (Ratio)
system.cpu.dcache.demandMshrMissRate::total     0.001055                       # mshr miss ratio for demand accesses (Ratio)
system.cpu.dcache.overallMshrMissRate::cpu.data     0.001055                       # mshr miss ratio for overall accesses (Ratio)
system.cpu.dcache.overallMshrMissRate::total     0.001055                       # mshr miss ratio for overall accesses (Ratio)
system.cpu.dcache.demandAvgMshrMissLatency::cpu.data 57755.413038                       # average overall mshr miss latency ((Cycle/Count))
system.cpu.dcache.demandAvgMshrMissLatency::total 57755.413038                       # average overall mshr miss latency ((Cycle/Count))
system.cpu.dcache.overallAvgMshrMissLatency::cpu.data 57755.413038                       # average overall mshr miss latency ((Cycle/Count))
system.cpu.dcache.overallAvgMshrMissLatency::total 57755.413038                       # average overall mshr miss latency ((Cycle/Count))
system.cpu.dcache.replacements                   7474                       # number of replacements (Count)
system.cpu.dcache.ReadReq.hits::cpu.data      3936645                       # number of ReadReq hits (Count)
system.cpu.dcache.ReadReq.hits::total         3936645                       # number of ReadReq hits (Count)
system.cpu.dcache.ReadReq.misses::cpu.data        24524                       # number of ReadReq misses (Count)
system.cpu.dcache.ReadReq.misses::total         24524                       # number of ReadReq misses (Count)
system.cpu.dcache.ReadReq.missLatency::cpu.data   1063759000                       # number of ReadReq miss ticks (Tick)
system.cpu.dcache.ReadReq.missLatency::total   1063759000                       # number of ReadReq miss ticks (Tick)
system.cpu.dcache.ReadReq.accesses::cpu.data      3961169                       # number of ReadReq accesses(hits+misses) (Count)
system.cpu.dcache.ReadReq.accesses::total      3961169                       # number of ReadReq accesses(hits+misses) (Count)
system.cpu.dcache.ReadReq.missRate::cpu.data     0.006191                       # miss rate for ReadReq accesses (Ratio)
system.cpu.dcache.ReadReq.missRate::total     0.006191                       # miss rate for ReadReq accesses (Ratio)
system.cpu.dcache.ReadReq.avgMissLatency::cpu.data 43376.243680                       # average ReadReq miss latency ((Tick/Count))
system.cpu.dcache.ReadReq.avgMissLatency::total 43376.243680                       # average ReadReq miss latency ((Tick/Count))
system.cpu.dcache.ReadReq.mshrHits::cpu.data        17758                       # number of ReadReq MSHR hits (Count)
system.cpu.dcache.ReadReq.mshrHits::total        17758                       # number of ReadReq MSHR hits (Count)
system.cpu.dcache.ReadReq.mshrMisses::cpu.data         6766                       # number of ReadReq MSHR misses (Count)
system.cpu.dcache.ReadReq.mshrMisses::total         6766                       # number of ReadReq MSHR misses (Count)
system.cpu.dcache.ReadReq.mshrMissLatency::cpu.data    365620000                       # number of ReadReq MSHR miss ticks (Tick)
system.cpu.dcache.ReadReq.mshrMissLatency::total    365620000                       # number of ReadReq MSHR miss ticks (Tick)
system.cpu.dcache.ReadReq.mshrMissRate::cpu.data     0.001708                       # mshr miss rate for ReadReq accesses (Ratio)
system.cpu.dcache.ReadReq.mshrMissRate::total     0.001708                       # mshr miss rate for ReadReq accesses (Ratio)
system.cpu.dcache.ReadReq.avgMshrMissLatency::cpu.data 54037.836240                       # average ReadReq mshr miss latency ((Tick/Count))
system.cpu.dcache.ReadReq.avgMshrMissLatency::total 54037.836240                       # average ReadReq mshr miss latency ((Tick/Count))
system.cpu.dcache.WriteReq.hits::cpu.data      4088318                       # number of WriteReq hits (Count)
system.cpu.dcache.WriteReq.hits::total        4088318                       # number of WriteReq hits (Count)
system.cpu.dcache.WriteReq.misses::cpu.data         2711                       # number of WriteReq misses (Count)
system.cpu.dcache.WriteReq.misses::total         2711                       # number of WriteReq misses (Count)
system.cpu.dcache.WriteReq.missLatency::cpu.data    133542000                       # number of WriteReq miss ticks (Tick)
system.cpu.dcache.WriteReq.missLatency::total    133542000                       # number of WriteReq miss ticks (Tick)
system.cpu.dcache.WriteReq.accesses::cpu.data      4091029                       # number of WriteReq accesses(hits+misses) (Count)
system.cpu.dcache.WriteReq.accesses::total      4091029                       # number of WriteReq accesses(hits+misses) (Count)
system.cpu.dcache.WriteReq.missRate::cpu.data     0.000663                       # miss rate for WriteReq accesses (Ratio)
system.cpu.dcache.WriteReq.missRate::total     0.000663                       # miss rate for WriteReq accesses (Ratio)
system.cpu.dcache.WriteReq.avgMissLatency::cpu.data 49259.313906                       # average WriteReq miss latency ((Tick/Count))
system.cpu.dcache.WriteReq.avgMissLatency::total 49259.313906                       # average WriteReq miss latency ((Tick/Count))
system.cpu.dcache.WriteReq.mshrHits::cpu.data          979                       # number of WriteReq MSHR hits (Count)
system.cpu.dcache.WriteReq.mshrHits::total          979                       # number of WriteReq MSHR hits (Count)
system.cpu.dcache.WriteReq.mshrMisses::cpu.data         1732                       # number of WriteReq MSHR misses (Count)
system.cpu.dcache.WriteReq.mshrMisses::total         1732                       # number of WriteReq MSHR misses (Count)
system.cpu.dcache.WriteReq.mshrMissLatency::cpu.data    125185500                       # number of WriteReq MSHR miss ticks (Tick)
system.cpu.dcache.WriteReq.mshrMissLatency::total    125185500                       # number of WriteReq MSHR miss ticks (Tick)
system.cpu.dcache.WriteReq.mshrMissRate::cpu.data     0.000423                       # mshr miss rate for WriteReq accesses (Ratio)
system.cpu.dcache.WriteReq.mshrMissRate::total     0.000423                       # mshr miss rate for WriteReq accesses (Ratio)
system.cpu.dcache.WriteReq.avgMshrMissLatency::cpu.data 72278.002309                       # average WriteReq mshr miss latency ((Tick/Count))
system.cpu.dcache.WriteReq.avgMshrMissLatency::total 72278.002309                       # average WriteReq mshr miss latency ((Tick/Count))
system.cpu.dcache.power_state.pwrStateResidencyTicks::UNDEFINED   5602367000                       # Cumulative time (in ticks) in various power states (Tick)
system.cpu.dcache.tags.tagsInUse          1012.142841                       # Average ticks per tags in use ((Tick/Count))
system.cpu.dcache.tags.totalRefs              8033461                       # Total number of references to valid blocks. (Count)
system.cpu.dcache.tags.sampledRefs               8498                       # Sample count of references to valid blocks. (Count)
system.cpu.dcache.tags.avgRefs             945.335491                       # Average number of references to valid blocks. ((Count/Count))
system.cpu.dcache.tags.warmupTick              168000                       # The tick when the warmup percentage was hit. (Tick)
system.cpu.dcache.tags.occupancies::cpu.data  1012.142841                       # Average occupied blocks per tick, per requestor ((Count/Tick))
system.cpu.dcache.tags.avgOccs::cpu.data     0.988421                       # Average percentage of cache occupancy ((Ratio/Tick))
system.cpu.dcache.tags.avgOccs::total        0.988421                       # Average percentage of cache occupancy ((Ratio/Tick))
system.cpu.dcache.tags.occupanciesTaskId::1024         1024                       # Occupied blocks per task id (Count)
system.cpu.dcache.tags.ageTaskId_1024::0           49                       # Occupied blocks per task id, per block age (Count)
system.cpu.dcache.tags.ageTaskId_1024::1           10                       # Occupied blocks per task id, per block age (Count)
system.cpu.dcache.tags.ageTaskId_1024::2          101                       # Occupied blocks per task id, per block age (Count)
system.cpu.dcache.tags.ageTaskId_1024::3          864                       # Occupied blocks per task id, per block age (Count)
system.cpu.dcache.tags.ratioOccsTaskId::1024            1                       # Ratio of occupied blocks and all blocks, per task id (Ratio)
system.cpu.dcache.tags.tagAccesses           16112894                       # Number of tag accesses (Count)
system.cpu.dcache.tags.dataAccesses          16112894                       # Number of data accesses (Count)
system.cpu.dcache.tags.power_state.pwrStateResidencyTicks::UNDEFINED   5602367000                       # Cumulative time (in ticks) in various power states (Tick)
system.cpu.decode.idleCycles                  3928238                       # Number of cycles decode is idle (Cycle)
system.cpu.decode.blockedCycles                624211                       # Number of cycles decode is blocked (Cycle)
system.cpu.decode.runCycles                   6417637                       # Number of cycles decode is running (Cycle)
system.cpu.decode.unblockCycles                 81496                       # Number of cycles decode is unblocking (Cycle)
system.cpu.decode.squashCycles                  47963                       # Number of cycles decode is squashing (Cycle)
system.cpu.decode.branchResolved              1431100                       # Number of times decode resolved a branch (Count)
system.cpu.decode.branchMispred                  2618                       # Number of times decode detected a branch misprediction (Count)
system.cpu.decode.decodedInsts               37332278                       # Number of instructions handled by decode (Count)
system.cpu.decode.squashedInsts                  3877                       # Number of squashed instructions handled by decode (Count)
system.cpu.fetch.icacheStallCycles            4011385                       # Number of cycles fetch is stalled on an Icache miss (Cycle)
system.cpu.fetch.insts                       21100517                       # Number of instructions fetch has processed (Count)
system.cpu.fetch.branches                     3550117                       # Number of branches that fetch encountered (Count)
system.cpu.fetch.predictedBranches            2565889                       # Number of branches that fetch has predicted taken (Count)
system.cpu.fetch.cycles                       7021146                       # Number of cycles fetch has run and was not squashing or blocked (Cycle)
system.cpu.fetch.squashCycles                  101138                       # Number of cycles fetch has spent squashing (Cycle)
system.cpu.fetch.miscStallCycles                 2280                       # Number of cycles fetch has spent waiting on interrupts, or bad addresses, or out of MSHRs (Cycle)
system.cpu.fetch.pendingTrapStallCycles         14035                       # Number of stall cycles due to pending traps (Cycle)
system.cpu.fetch.pendingQuiesceStallCycles          116                       # Number of stall cycles due to pending quiesce instructions (Cycle)
system.cpu.fetch.icacheWaitRetryStallCycles           14                       # Number of stall cycles due to full MSHR (Cycle)
system.cpu.fetch.cacheLines                   3813891                       # Number of cache lines fetched (Count)
system.cpu.fetch.icacheSquashes                 16594                       # Number of outstanding Icache misses that were squashed (Count)
system.cpu.fetch.nisnDist::samples           11099545                       # Number of instructions fetched each cycle (Total) (Count)
system.cpu.fetch.nisnDist::mean              3.386896                       # Number of instructions fetched each cycle (Total) (Count)
system.cpu.fetch.nisnDist::stdev             3.479780                       # Number of instructions fetched each cycle (Total) (Count)
system.cpu.fetch.nisnDist::underflows               0      0.00%      0.00% # Number of instructions fetched each cycle (Total) (Count)
system.cpu.fetch.nisnDist::0                  4491695     40.47%     40.47% # Number of instructions fetched each cycle (Total) (Count)
system.cpu.fetch.nisnDist::1                  1096928      9.88%     50.35% # Number of instructions fetched each cycle (Total) (Count)
system.cpu.fetch.nisnDist::2                   108504      0.98%     51.33% # Number of instructions fetched each cycle (Total) (Count)
system.cpu.fetch.nisnDist::3                   154301      1.39%     52.72% # Number of instructions fetched each cycle (Total) (Count)
system.cpu.fetch.nisnDist::4                  1130983     10.19%     62.91% # Number of instructions fetched each cycle (Total) (Count)
system.cpu.fetch.nisnDist::5                   116304      1.05%     63.96% # Number of instructions fetched each cycle (Total) (Count)
system.cpu.fetch.nisnDist::6                   594687      5.36%     69.31% # Number of instructions fetched each cycle (Total) (Count)
system.cpu.fetch.nisnDist::7                   106557      0.96%     70.27% # Number of instructions fetched each cycle (Total) (Count)
system.cpu.fetch.nisnDist::8                  3299586     29.73%    100.00% # Number of instructions fetched each cycle (Total) (Count)
system.cpu.fetch.nisnDist::overflows                0      0.00%    100.00% # Number of instructions fetched each cycle (Total) (Count)
system.cpu.fetch.nisnDist::min_value                0                       # Number of instructions fetched each cycle (Total) (Count)
system.cpu.fetch.nisnDist::max_value                8                       # Number of instructions fetched each cycle (Total) (Count)
system.cpu.fetch.nisnDist::total             11099545                       # Number of instructions fetched each cycle (Total) (Count)
system.cpu.fetch.branchRate                  0.316841                       # Number of branch fetches per cycle (Ratio)
system.cpu.fetch.rate                        1.883179                       # Number of inst fetches per cycle ((Count/Cycle))
system.cpu.icache.demandHits::cpu.inst        3805157                       # number of demand (read+write) hits (Count)
system.cpu.icache.demandHits::total           3805157                       # number of demand (read+write) hits (Count)
system.cpu.icache.overallHits::cpu.inst       3805157                       # number of overall hits (Count)
system.cpu.icache.overallHits::total          3805157                       # number of overall hits (Count)
system.cpu.icache.demandMisses::cpu.inst         8734                       # number of demand (read+write) misses (Count)
system.cpu.icache.demandMisses::total            8734                       # number of demand (read+write) misses (Count)
system.cpu.icache.overallMisses::cpu.inst         8734                       # number of overall misses (Count)
system.cpu.icache.overallMisses::total           8734                       # number of overall misses (Count)
system.cpu.icache.demandMissLatency::cpu.inst    214544000                       # number of demand (read+write) miss ticks (Tick)
system.cpu.icache.demandMissLatency::total    214544000                       # number of demand (read+write) miss ticks (Tick)
system.cpu.icache.overallMissLatency::cpu.inst    214544000                       # number of overall miss ticks (Tick)
system.cpu.icache.overallMissLatency::total    214544000                       # number of overall miss ticks (Tick)
system.cpu.icache.demandAccesses::cpu.inst      3813891                       # number of demand (read+write) accesses (Count)
system.cpu.icache.demandAccesses::total       3813891                       # number of demand (read+write) accesses (Count)
system.cpu.icache.overallAccesses::cpu.inst      3813891                       # number of overall (read+write) accesses (Count)
system.cpu.icache.overallAccesses::total      3813891                       # number of overall (read+write) accesses (Count)
system.cpu.icache.demandMissRate::cpu.inst     0.002290                       # miss rate for demand accesses (Ratio)
system.cpu.icache.demandMissRate::total      0.002290                       # miss rate for demand accesses (Ratio)
system.cpu.icache.overallMissRate::cpu.inst     0.002290                       # miss rate for overall accesses (Ratio)
system.cpu.icache.overallMissRate::total     0.002290                       # miss rate for overall accesses (Ratio)
system.cpu.icache.demandAvgMissLatency::cpu.inst 24564.231738                       # average overall miss latency ((Cycle/Count))
system.cpu.icache.demandAvgMissLatency::total 24564.231738                       # average overall miss latency ((Cycle/Count))
system.cpu.icache.overallAvgMissLatency::cpu.inst 24564.231738                       # average overall miss latency ((Cycle/Count))
system.cpu.icache.overallAvgMissLatency::total 24564.231738                       # average overall miss latency ((Cycle/Count))
system.cpu.icache.blockedCycles::no_mshrs          268                       # number of cycles access was blocked (Cycle)
system.cpu.icache.blockedCycles::no_targets            0                       # number of cycles access was blocked (Cycle)
system.cpu.icache.blockedCauses::no_mshrs            3                       # number of times access was blocked (Count)
system.cpu.icache.blockedCauses::no_targets            0                       # number of times access was blocked (Count)
system.cpu.icache.avgBlocked::no_mshrs      89.333333                       # average number of cycles each access was blocked ((Cycle/Count))
system.cpu.icache.avgBlocked::no_targets          nan                       # average number of cycles each access was blocked ((Cycle/Count))
system.cpu.icache.demandMshrHits::cpu.inst         1360                       # number of demand (read+write) MSHR hits (Count)
system.cpu.icache.demandMshrHits::total          1360                       # number of demand (read+write) MSHR hits (Count)
system.cpu.icache.overallMshrHits::cpu.inst         1360                       # number of overall MSHR hits (Count)
system.cpu.icache.overallMshrHits::total         1360                       # number of overall MSHR hits (Count)
system.cpu.icache.demandMshrMisses::cpu.inst         7374                       # number of demand (read+write) MSHR misses (Count)
system.cpu.icache.demandMshrMisses::total         7374                       # number of demand (read+write) MSHR misses (Count)
system.cpu.icache.overallMshrMisses::cpu.inst         7374                       # number of overall MSHR misses (Count)
system.cpu.icache.overallMshrMisses::total         7374                       # number of overall MSHR misses (Count)
system.cpu.icache.demandMshrMissLatency::cpu.inst    174033500                       # number of demand (read+write) MSHR miss ticks (Tick)
system.cpu.icache.demandMshrMissLatency::total    174033500                       # number of demand (read+write) MSHR miss ticks (Tick)
system.cpu.icache.overallMshrMissLatency::cpu.inst    174033500                       # number of overall MSHR miss ticks (Tick)
system.cpu.icache.overallMshrMissLatency::total    174033500                       # number of overall MSHR miss ticks (Tick)
system.cpu.icache.demandMshrMissRate::cpu.inst     0.001933                       # mshr miss ratio for demand accesses (Ratio)
system.cpu.icache.demandMshrMissRate::total     0.001933                       # mshr miss ratio for demand accesses (Ratio)
system.cpu.icache.overallMshrMissRate::cpu.inst     0.001933                       # mshr miss ratio for overall accesses (Ratio)
system.cpu.icache.overallMshrMissRate::total     0.001933                       # mshr miss ratio for overall accesses (Ratio)
system.cpu.icache.demandAvgMshrMissLatency::cpu.inst 23600.962842                       # average overall mshr miss latency ((Cycle/Count))
system.cpu.icache.demandAvgMshrMissLatency::total 23600.962842                       # average overall mshr miss latency ((Cycle/Count))
system.cpu.icache.overallAvgMshrMissLatency::cpu.inst 23600.962842                       # average overall mshr miss latency ((Cycle/Count))
system.cpu.icache.overallAvgMshrMissLatency::total 23600.962842                       # average overall mshr miss latency ((Cycle/Count))
system.cpu.icache.replacements                   6862                       # number of replacements (Count)
system.cpu.icache.ReadReq.hits::cpu.inst      3805157                       # number of ReadReq hits (Count)
system.cpu.icache.ReadReq.hits::total         3805157                       # number of ReadReq hits (Count)
system.cpu.icache.ReadReq.misses::cpu.inst         8734                       # number of ReadReq misses (Count)
system.cpu.icache.ReadReq.misses::total          8734                       # number of ReadReq misses (Count)
system.cpu.icache.ReadReq.missLatency::cpu.inst    214544000                       # number of ReadReq miss ticks (Tick)
system.cpu.icache.ReadReq.missLatency::total    214544000                       # number of ReadReq miss ticks (Tick)
system.cpu.icache.ReadReq.accesses::cpu.inst      3813891                       # number of ReadReq accesses(hits+misses) (Count)
system.cpu.icache.ReadReq.accesses::total      3813891                       # number of ReadReq accesses(hits+misses) (Count)
system.cpu.icache.ReadReq.missRate::cpu.inst     0.002290                       # miss rate for ReadReq accesses (Ratio)
system.cpu.icache.ReadReq.missRate::total     0.002290                       # miss rate for ReadReq accesses (Ratio)
system.cpu.icache.ReadReq.avgMissLatency::cpu.inst 24564.231738                       # average ReadReq miss latency ((Tick/Count))
system.cpu.icache.ReadReq.avgMissLatency::total 24564.231738                       # average ReadReq miss latency ((Tick/Count))
system.cpu.icache.ReadReq.mshrHits::cpu.inst         1360                       # number of ReadReq MSHR hits (Count)
system.cpu.icache.ReadReq.mshrHits::total         1360                       # number of ReadReq MSHR hits (Count)
system.cpu.icache.ReadReq.mshrMisses::cpu.inst         7374                       # number of ReadReq MSHR misses (Count)
system.cpu.icache.ReadReq.mshrMisses::total         7374                       # number of ReadReq MSHR misses (Count)
system.cpu.icache.ReadReq.mshrMissLatency::cpu.inst    174033500                       # number of ReadReq MSHR miss ticks (Tick)
system.cpu.icache.ReadReq.mshrMissLatency::total    174033500                       # number of ReadReq MSHR miss ticks (Tick)
system.cpu.icache.ReadReq.mshrMissRate::cpu.inst     0.001933                       # mshr miss rate for ReadReq accesses (Ratio)
system.cpu.icache.ReadReq.mshrMissRate::total     0.001933                       # mshr miss rate for ReadReq accesses (Ratio)
system.cpu.icache.ReadReq.avgMshrMissLatency::cpu.inst 23600.962842                       # average ReadReq mshr miss latency ((Tick/Count))
system.cpu.icache.ReadReq.avgMshrMissLatency::total 23600.962842                       # average ReadReq mshr miss latency ((Tick/Count))
system.cpu.icache.power_state.pwrStateResidencyTicks::UNDEFINED   5602367000                       # Cumulative time (in ticks) in various power states (Tick)
system.cpu.icache.tags.tagsInUse           480.654179                       # Average ticks per tags in use ((Tick/Count))
system.cpu.icache.tags.totalRefs              3812530                       # Total number of references to valid blocks. (Count)
system.cpu.icache.tags.sampledRefs               7373                       # Sample count of references to valid blocks. (Count)
system.cpu.icache.tags.avgRefs             517.093449                       # Average number of references to valid blocks. ((Count/Count))
system.cpu.icache.tags.warmupTick               82000                       # The tick when the warmup percentage was hit. (Tick)
system.cpu.icache.tags.occupancies::cpu.inst   480.654179                       # Average occupied blocks per tick, per requestor ((Count/Tick))
system.cpu.icache.tags.avgOccs::cpu.inst     0.938778                       # Average percentage of cache occupancy ((Ratio/Tick))
system.cpu.icache.tags.avgOccs::total        0.938778                       # Average percentage of cache occupancy ((Ratio/Tick))
system.cpu.icache.tags.occupanciesTaskId::1024          511                       # Occupied blocks per task id (Count)
system.cpu.icache.tags.ageTaskId_1024::0          106                       # Occupied blocks per task id, per block age (Count)
system.cpu.icache.tags.ageTaskId_1024::3          405                       # Occupied blocks per task id, per block age (Count)
system.cpu.icache.tags.ratioOccsTaskId::1024     0.998047                       # Ratio of occupied blocks and all blocks, per task id (Ratio)
system.cpu.icache.tags.tagAccesses            7635155                       # Number of tag accesses (Count)
system.cpu.icache.tags.dataAccesses           7635155                       # Number of data accesses (Count)
system.cpu.icache.tags.power_state.pwrStateResidencyTicks::UNDEFINED   5602367000                       # Cumulative time (in ticks) in various power states (Tick)
system.cpu.iew.idleCycles                           0                       # Number of cycles IEW is idle (Cycle)
system.cpu.iew.squashCycles                     47963                       # Number of cycles IEW is squashing (Cycle)
system.cpu.iew.blockCycles                     251228                       # Number of cycles IEW is blocking (Cycle)
system.cpu.iew.unblockCycles                    26112                       # Number of cycles IEW is unblocking (Cycle)
system.cpu.iew.dispatchedInsts               36812329                       # Number of instructions dispatched to IQ (Count)
system.cpu.iew.dispSquashedInsts                23575                       # Number of squashed instructions skipped by dispatch (Count)
system.cpu.iew.dispLoadInsts                  8209174                       # Number of dispatched load instructions (Count)
system.cpu.iew.dispStoreInsts                 4186661                       # Number of dispatched store instructions (Count)
system.cpu.iew.dispNonSpecInsts                    34                       # Number of dispatched non-speculative instructions (Count)
system.cpu.iew.iqFullEvents                      2246                       # Number of times the IQ has become full, causing a stall (Count)
system.cpu.iew.lsqFullEvents                    23426                       # Number of times the LSQ has become full, causing a stall (Count)
system.cpu.iew.memOrderViolationEvents            519                       # Number of memory order violations (Count)
system.cpu.iew.predictedTakenIncorrect          19356                       # Number of branches that were predicted taken incorrectly (Count)
system.cpu.iew.predictedNotTakenIncorrect        33447                       # Number of branches that were predicted not taken incorrectly (Count)
system.cpu.iew.branchMispredicts                52803                       # Number of branch mispredicts detected at execute (Count)
system.cpu.iew.instsToCommit                 36271648                       # Cumulative count of insts sent to commit (Count)
system.cpu.iew.writebackCount                36251806                       # Cumulative count of insts written-back (Count)
system.cpu.iew.producerInst                  23230721                       # Number of instructions producing a value (Count)
system.cpu.iew.consumerInst                  30927076                       # Number of instructions consuming a value (Count)
system.cpu.iew.wbRate                        3.235401                       # Insts written-back per cycle ((Count/Cycle))
system.cpu.iew.wbFanout                      0.751145                       # Average fanout of values written-back ((Count/Count))
system.cpu.interrupts.clk_domain.clock           8000                       # Clock period in ticks (Tick)
system.cpu.l2cache.demandHits::cpu.inst          6032                       # number of demand (read+write) hits (Count)
system.cpu.l2cache.demandHits::cpu.data          2470                       # number of demand (read+write) hits (Count)
system.cpu.l2cache.demandHits::total             8502                       # number of demand (read+write) hits (Count)
system.cpu.l2cache.overallHits::cpu.inst         6032                       # number of overall hits (Count)
system.cpu.l2cache.overallHits::cpu.data         2470                       # number of overall hits (Count)
system.cpu.l2cache.overallHits::total            8502                       # number of overall hits (Count)
system.cpu.l2cache.demandMisses::cpu.inst         1342                       # number of demand (read+write) misses (Count)
system.cpu.l2cache.demandMisses::cpu.data         6028                       # number of demand (read+write) misses (Count)
system.cpu.l2cache.demandMisses::total           7370                       # number of demand (read+write) misses (Count)
system.cpu.l2cache.overallMisses::cpu.inst         1342                       # number of overall misses (Count)
system.cpu.l2cache.overallMisses::cpu.data         6028                       # number of overall misses (Count)
system.cpu.l2cache.overallMisses::total          7370                       # number of overall misses (Count)
system.cpu.l2cache.demandMissLatency::cpu.inst     99628000                       # number of demand (read+write) miss ticks (Tick)
system.cpu.l2cache.demandMissLatency::cpu.data    452042500                       # number of demand (read+write) miss ticks (Tick)
system.cpu.l2cache.demandMissLatency::total    551670500                       # number of demand (read+write) miss ticks (Tick)
system.cpu.l2cache.overallMissLatency::cpu.inst     99628000                       # number of overall miss ticks (Tick)
system.cpu.l2cache.overallMissLatency::cpu.data    452042500                       # number of overall miss ticks (Tick)
system.cpu.l2cache.overallMissLatency::total    551670500                       # number of overall miss ticks (Tick)
system.cpu.l2cache.demandAccesses::cpu.inst         7374                       # number of demand (read+write) accesses (Count)
system.cpu.l2cache.demandAccesses::cpu.data         8498                       # number of demand (read+write) accesses (Count)
system.cpu.l2cache.demandAccesses::total        15872                       # number of demand (read+write) accesses (Count)
system.cpu.l2cache.overallAccesses::cpu.inst         7374                       # number of overall (read+write) accesses (Count)
system.cpu.l2cache.overallAccesses::cpu.data         8498                       # number of overall (read+write) accesses (Count)
system.cpu.l2cache.overallAccesses::total        15872                       # number of overall (read+write) accesses (Count)
system.cpu.l2cache.demandMissRate::cpu.inst     0.181991                       # miss rate for demand accesses (Ratio)
system.cpu.l2cache.demandMissRate::cpu.data     0.709343                       # miss rate for demand accesses (Ratio)
system.cpu.l2cache.demandMissRate::total     0.464340                       # miss rate for demand accesses (Ratio)
system.cpu.l2cache.overallMissRate::cpu.inst     0.181991                       # miss rate for overall accesses (Ratio)
system.cpu.l2cache.overallMissRate::cpu.data     0.709343                       # miss rate for overall accesses (Ratio)
system.cpu.l2cache.overallMissRate::total     0.464340                       # miss rate for overall accesses (Ratio)
system.cpu.l2cache.demandAvgMissLatency::cpu.inst 74238.450075                       # average overall miss latency ((Cycle/Count))
system.cpu.l2cache.demandAvgMissLatency::cpu.data 74990.461181                       # average overall miss latency ((Cycle/Count))
system.cpu.l2cache.demandAvgMissLatency::total 74853.527815                       # average overall miss latency ((Cycle/Count))
system.cpu.l2cache.overallAvgMissLatency::cpu.inst 74238.450075                       # average overall miss latency ((Cycle/Count))
system.cpu.l2cache.overallAvgMissLatency::cpu.data 74990.461181                       # average overall miss latency ((Cycle/Count))
system.cpu.l2cache.overallAvgMissLatency::total 74853.527815                       # average overall miss latency ((Cycle/Count))
system.cpu.l2cache.blockedCycles::no_mshrs            0                       # number of cycles access was blocked (Cycle)
system.cpu.l2cache.blockedCycles::no_targets            0                       # number of cycles access was blocked (Cycle)
system.cpu.l2cache.blockedCauses::no_mshrs            0                       # number of times access was blocked (Count)
system.cpu.l2cache.blockedCauses::no_targets            0                       # number of times access was blocked (Count)
system.cpu.l2cache.avgBlocked::no_mshrs           nan                       # average number of cycles each access was blocked ((Cycle/Count))
system.cpu.l2cache.avgBlocked::no_targets          nan                       # average number of cycles each access was blocked ((Cycle/Count))
system.cpu.l2cache.writebacks::writebacks         1499                       # number of writebacks (Count)
system.cpu.l2cache.writebacks::total             1499                       # number of writebacks (Count)
system.cpu.l2cache.demandMshrMisses::cpu.inst         1342                       # number of demand (read+write) MSHR misses (Count)
system.cpu.l2cache.demandMshrMisses::cpu.data         6028                       # number of demand (read+write) MSHR misses (Count)
system.cpu.l2cache.demandMshrMisses::total         7370                       # number of demand (read+write) MSHR misses (Count)
system.cpu.l2cache.overallMshrMisses::cpu.inst         1342                       # number of overall MSHR misses (Count)
system.cpu.l2cache.overallMshrMisses::cpu.data         6028                       # number of overall MSHR misses (Count)
system.cpu.l2cache.overallMshrMisses::total         7370                       # number of overall MSHR misses (Count)
system.cpu.l2cache.demandMshrMissLatency::cpu.inst     86218000                       # number of demand (read+write) MSHR miss ticks (Tick)
system.cpu.l2cache.demandMshrMissLatency::cpu.data    391762500                       # number of demand (read+write) MSHR miss ticks (Tick)
system.cpu.l2cache.demandMshrMissLatency::total    477980500                       # number of demand (read+write) MSHR miss ticks (Tick)
system.cpu.l2cache.overallMshrMissLatency::cpu.inst     86218000                       # number of overall MSHR miss ticks (Tick)
system.cpu.l2cache.overallMshrMissLatency::cpu.data    391762500                       # number of overall MSHR miss ticks (Tick)
system.cpu.l2cache.overallMshrMissLatency::total    477980500                       # number of overall MSHR miss ticks (Tick)
system.cpu.l2cache.demandMshrMissRate::cpu.inst     0.181991                       # mshr miss ratio for demand accesses (Ratio)
system.cpu.l2cache.demandMshrMissRate::cpu.data     0.709343                       # mshr miss ratio for demand accesses (Ratio)
[...]
system.mem_ctrl.dram.bytesWritten::total        95936                       # Number of bytes written to this memory (Byte)
system.mem_ctrl.dram.numReads::cpu.inst          1341                       # Number of read requests responded to by this memory (Count)
system.mem_ctrl.dram.numReads::cpu.data          6028                       # Number of read requests responded to by this memory (Count)
system.mem_ctrl.dram.numReads::total             7369                       # Number of read requests responded to by this memory (Count)
system.mem_ctrl.dram.numWrites::writebacks         1499                       # Number of write requests responded to by this memory (Count)
system.mem_ctrl.dram.numWrites::total            1499                       # Number of write requests responded to by this memory (Count)
system.mem_ctrl.dram.bwRead::cpu.inst        15319239                       # Total read bandwidth from this memory ((Byte/Second))
system.mem_ctrl.dram.bwRead::cpu.data        68862322                       # Total read bandwidth from this memory ((Byte/Second))
system.mem_ctrl.dram.bwRead::total           84181561                       # Total read bandwidth from this memory ((Byte/Second))
system.mem_ctrl.dram.bwInstRead::cpu.inst     15319239                       # Instruction read bandwidth from this memory ((Byte/Second))
system.mem_ctrl.dram.bwInstRead::total       15319239                       # Instruction read bandwidth from this memory ((Byte/Second))
system.mem_ctrl.dram.bwWrite::writebacks     17124191                       # Write bandwidth from this memory ((Byte/Second))
system.mem_ctrl.dram.bwWrite::total          17124191                       # Write bandwidth from this memory ((Byte/Second))
system.mem_ctrl.dram.bwTotal::writebacks     17124191                       # Total bandwidth to/from this memory ((Byte/Second))
system.mem_ctrl.dram.bwTotal::cpu.inst       15319239                       # Total bandwidth to/from this memory ((Byte/Second))
system.mem_ctrl.dram.bwTotal::cpu.data       68862322                       # Total bandwidth to/from this memory ((Byte/Second))
system.mem_ctrl.dram.bwTotal::total         101305752                       # Total bandwidth to/from this memory ((Byte/Second))
system.mem_ctrl.dram.readBursts                  7364                       # Number of DRAM read bursts (Count)
system.mem_ctrl.dram.writeBursts                 1479                       # Number of DRAM write bursts (Count)
system.mem_ctrl.dram.perBankRdBursts::0           561                       # Per bank write bursts (Count)
system.mem_ctrl.dram.perBankRdBursts::1           551                       # Per bank write bursts (Count)
system.mem_ctrl.dram.perBankRdBursts::2           811                       # Per bank write bursts (Count)
system.mem_ctrl.dram.perBankRdBursts::3           484                       # Per bank write bursts (Count)
system.mem_ctrl.dram.perBankRdBursts::4           454                       # Per bank write bursts (Count)
system.mem_ctrl.dram.perBankRdBursts::5           378                       # Per bank write bursts (Count)
system.mem_ctrl.dram.perBankRdBursts::6           346                       # Per bank write bursts (Count)
system.mem_ctrl.dram.perBankRdBursts::7           317                       # Per bank write bursts (Count)
system.mem_ctrl.dram.perBankRdBursts::8           351                       # Per bank write bursts (Count)
system.mem_ctrl.dram.perBankRdBursts::9           447                       # Per bank write bursts (Count)
system.mem_ctrl.dram.perBankRdBursts::10          583                       # Per bank write bursts (Count)
system.mem_ctrl.dram.perBankRdBursts::11          430                       # Per bank write bursts (Count)
system.mem_ctrl.dram.perBankRdBursts::12          337                       # Per bank write bursts (Count)
system.mem_ctrl.dram.perBankRdBursts::13          389                       # Per bank write bursts (Count)
system.mem_ctrl.dram.perBankRdBursts::14          396                       # Per bank write bursts (Count)
system.mem_ctrl.dram.perBankRdBursts::15          529                       # Per bank write bursts (Count)
system.mem_ctrl.dram.perBankWrBursts::0           139                       # Per bank write bursts (Count)
system.mem_ctrl.dram.perBankWrBursts::1           134                       # Per bank write bursts (Count)
system.mem_ctrl.dram.perBankWrBursts::2           379                       # Per bank write bursts (Count)
system.mem_ctrl.dram.perBankWrBursts::3           131                       # Per bank write bursts (Count)
system.mem_ctrl.dram.perBankWrBursts::4            48                       # Per bank write bursts (Count)
system.mem_ctrl.dram.perBankWrBursts::5             7                       # Per bank write bursts (Count)
system.mem_ctrl.dram.perBankWrBursts::6            54                       # Per bank write bursts (Count)
system.mem_ctrl.dram.perBankWrBursts::7            14                       # Per bank write bursts (Count)
system.mem_ctrl.dram.perBankWrBursts::8            18                       # Per bank write bursts (Count)
system.mem_ctrl.dram.perBankWrBursts::9           106                       # Per bank write bursts (Count)
system.mem_ctrl.dram.perBankWrBursts::10          230                       # Per bank write bursts (Count)
system.mem_ctrl.dram.perBankWrBursts::11           75                       # Per bank write bursts (Count)
system.mem_ctrl.dram.perBankWrBursts::12           11                       # Per bank write bursts (Count)
system.mem_ctrl.dram.perBankWrBursts::13           22                       # Per bank write bursts (Count)
system.mem_ctrl.dram.perBankWrBursts::14           21                       # Per bank write bursts (Count)
system.mem_ctrl.dram.perBankWrBursts::15           90                       # Per bank write bursts (Count)
system.mem_ctrl.dram.totQLat                 77042000                       # Total ticks spent queuing (Tick)
system.mem_ctrl.dram.totBusLat               36820000                       # Total ticks spent in databus transfers (Tick)
system.mem_ctrl.dram.totMemAccLat           215117000                       # Total ticks spent from burst creation until serviced by the DRAM (Tick)
system.mem_ctrl.dram.avgQLat                 10461.98                       # Average queueing delay per DRAM burst ((Tick/Count))
system.mem_ctrl.dram.avgBusLat                5000.00                       # Average bus latency per DRAM burst ((Tick/Count))
system.mem_ctrl.dram.avgMemAccLat            29211.98                       # Average memory access latency per DRAM burst ((Tick/Count))
system.mem_ctrl.dram.readRowHits                 6018                       # Number of row buffer hits during reads (Count)
system.mem_ctrl.dram.writeRowHits                1244                       # Number of row buffer hits during writes (Count)
system.mem_ctrl.dram.readRowHitRate             81.72                       # Row buffer hit rate for reads (Ratio)
system.mem_ctrl.dram.writeRowHitRate            84.11                       # Row buffer hit rate for writes (Ratio)
system.mem_ctrl.dram.bytesPerActivate::samples         1568                       # Bytes accessed per row activation (Byte)
system.mem_ctrl.dram.bytesPerActivate::mean   359.020408                       # Bytes accessed per row activation (Byte)
system.mem_ctrl.dram.bytesPerActivate::gmean   240.314639                       # Bytes accessed per row activation (Byte)
system.mem_ctrl.dram.bytesPerActivate::stdev   314.496678                       # Bytes accessed per row activation (Byte)
system.mem_ctrl.dram.bytesPerActivate::0-127          343     21.88%     21.88% # Bytes accessed per row activation (Byte)
system.mem_ctrl.dram.bytesPerActivate::128-255          477     30.42%     52.30% # Bytes accessed per row activation (Byte)
system.mem_ctrl.dram.bytesPerActivate::256-383          128      8.16%     60.46% # Bytes accessed per row activation (Byte)
system.mem_ctrl.dram.bytesPerActivate::384-511          219     13.97%     74.43% # Bytes accessed per row activation (Byte)
system.mem_ctrl.dram.bytesPerActivate::512-639           98      6.25%     80.68% # Bytes accessed per row activation (Byte)
system.mem_ctrl.dram.bytesPerActivate::640-767           37      2.36%     83.04% # Bytes accessed per row activation (Byte)
system.mem_ctrl.dram.bytesPerActivate::768-895           48      3.06%     86.10% # Bytes accessed per row activation (Byte)
system.mem_ctrl.dram.bytesPerActivate::896-1023           52      3.32%     89.41% # Bytes accessed per row activation (Byte)
system.mem_ctrl.dram.bytesPerActivate::1024-1151          166     10.59%    100.00% # Bytes accessed per row activation (Byte)
system.mem_ctrl.dram.bytesPerActivate::total         1568                       # Bytes accessed per row activation (Byte)
system.mem_ctrl.dram.bytesRead                 471296                       # Total bytes read (Byte)
system.mem_ctrl.dram.bytesWritten               94656                       # Total bytes written (Byte)
system.mem_ctrl.dram.avgRdBW                84.124442                       # Average DRAM read bandwidth in MiBytes/s ((Byte/Second))
system.mem_ctrl.dram.avgWrBW                16.895716                       # Average DRAM write bandwidth in MiBytes/s ((Byte/Second))
system.mem_ctrl.dram.peakBW                  12800.00                       # Theoretical peak bandwidth in MiByte/s ((Byte/Second))
system.mem_ctrl.dram.busUtil                     0.79                       # Data bus utilization in percentage (Ratio)
system.mem_ctrl.dram.busUtilRead                 0.66                       # Data bus utilization in percentage for reads (Ratio)
system.mem_ctrl.dram.busUtilWrite                0.13                       # Data bus utilization in percentage for writes (Ratio)
system.mem_ctrl.dram.pageHitRate                82.12                       # Row buffer hit rate, read and write combined (Ratio)
system.mem_ctrl.dram.power_state.pwrStateResidencyTicks::UNDEFINED   5602367000                       # Cumulative time (in ticks) in various power states (Tick)
system.mem_ctrl.dram.rank0.actEnergy          6197520                       # Energy for activate commands per rank (pJ) (Joule)
system.mem_ctrl.dram.rank0.preEnergy          3271290                       # Energy for precharge commands per rank (pJ) (Joule)
system.mem_ctrl.dram.rank0.readEnergy        27860280                       # Energy for read commands per rank (pJ) (Joule)
system.mem_ctrl.dram.rank0.writeEnergy        4729320                       # Energy for write commands per rank (pJ) (Joule)
system.mem_ctrl.dram.rank0.refreshEnergy 441926160.000000                       # Energy for refresh commands per rank (pJ) (Joule)
system.mem_ctrl.dram.rank0.actBackEnergy   1037155470                       # Energy for active background per rank (pJ) (Joule)
system.mem_ctrl.dram.rank0.preBackEnergy   1277915040                       # Energy for precharge background per rank (pJ) (Joule)
system.mem_ctrl.dram.rank0.actPowerDownEnergy            0                       # Energy for active power-down per rank (pJ) (Joule)
system.mem_ctrl.dram.rank0.prePowerDownEnergy            0                       # Energy for precharge power-down per rank (pJ) (Joule)
system.mem_ctrl.dram.rank0.selfRefreshEnergy            0                       # Energy for self refresh per rank (pJ) (Joule)
system.mem_ctrl.dram.rank0.totalEnergy     2799055080                       # Total energy per rank (pJ) (Joule)
system.mem_ctrl.dram.rank0.averagePower    499.620086                       # Core power per rank (mW) (Watt)
system.mem_ctrl.dram.rank0.totalIdleTime            0                       # Total Idle time Per DRAM Rank (Tick)
system.mem_ctrl.dram.rank0.pwrStateTime::IDLE   3311495000                       # Time in different power states (Tick)
system.mem_ctrl.dram.rank0.pwrStateTime::REF    186940000                       # Time in different power states (Tick)
system.mem_ctrl.dram.rank0.pwrStateTime::SREF            0                       # Time in different power states (Tick)
system.mem_ctrl.dram.rank0.pwrStateTime::PRE_PDN            0                       # Time in different power states (Tick)
system.mem_ctrl.dram.rank0.pwrStateTime::ACT   2103932000                       # Time in different power states (Tick)
system.mem_ctrl.dram.rank0.pwrStateTime::ACT_PDN            0                       # Time in different power states (Tick)
system.mem_ctrl.dram.rank1.actEnergy          5090820                       # Energy for activate commands per rank (pJ) (Joule)
system.mem_ctrl.dram.rank1.preEnergy          2679270                       # Energy for precharge commands per rank (pJ) (Joule)
system.mem_ctrl.dram.rank1.readEnergy        24718680                       # Energy for read commands per rank (pJ) (Joule)
system.mem_ctrl.dram.rank1.writeEnergy        2991060                       # Energy for write commands per rank (pJ) (Joule)
system.mem_ctrl.dram.rank1.refreshEnergy 441926160.000000                       # Energy for refresh commands per rank (pJ) (Joule)
system.mem_ctrl.dram.rank1.actBackEnergy    799012320                       # Energy for active background per rank (pJ) (Joule)
system.mem_ctrl.dram.rank1.preBackEnergy   1478456640                       # Energy for precharge background per rank (pJ) (Joule)
system.mem_ctrl.dram.rank1.actPowerDownEnergy            0                       # Energy for active power-down per rank (pJ) (Joule)
system.mem_ctrl.dram.rank1.prePowerDownEnergy            0                       # Energy for precharge power-down per rank (pJ) (Joule)
system.mem_ctrl.dram.rank1.selfRefreshEnergy            0                       # Energy for self refresh per rank (pJ) (Joule)
system.mem_ctrl.dram.rank1.totalEnergy     2754874950                       # Total energy per rank (pJ) (Joule)
system.mem_ctrl.dram.rank1.averagePower    491.734110                       # Core power per rank (mW) (Watt)
system.mem_ctrl.dram.rank1.totalIdleTime            0                       # Total Idle time Per DRAM Rank (Tick)
system.mem_ctrl.dram.rank1.pwrStateTime::IDLE   3835706000                       # Time in different power states (Tick)
system.mem_ctrl.dram.rank1.pwrStateTime::REF    186940000                       # Time in different power states (Tick)
system.mem_ctrl.dram.rank1.pwrStateTime::SREF            0                       # Time in different power states (Tick)
system.mem_ctrl.dram.rank1.pwrStateTime::PRE_PDN            0                       # Time in different power states (Tick)
system.mem_ctrl.dram.rank1.pwrStateTime::ACT   1579721000                       # Time in different power states (Tick)
system.mem_ctrl.dram.rank1.pwrStateTime::ACT_PDN            0                       # Time in different power states (Tick)
system.mem_ctrl.power_state.pwrStateResidencyTicks::UNDEFINED   5602367000                       # Cumulative time (in ticks) in various power states (Tick)
system.membus.transDist::ReadResp                5712                       # Transaction distribution (Count)
system.membus.transDist::WritebackDirty          1499                       # Transaction distribution (Count)
system.membus.transDist::CleanEvict              1610                       # Transaction distribution (Count)
system.membus.transDist::ReadExReq               1657                       # Transaction distribution (Count)
system.membus.transDist::ReadExResp              1657                       # Transaction distribution (Count)
system.membus.transDist::ReadSharedReq           5712                       # Transaction distribution (Count)
system.membus.pktCount_system.cpu.l2cache.mem_side_port::system.mem_ctrl.port        17847                       # Packet count per connected requestor and responder (Count)
system.membus.pktCount_system.cpu.l2cache.mem_side_port::total        17847                       # Packet count per connected requestor and responder (Count)
system.membus.pktCount::total                   17847                       # Packet count per connected requestor and responder (Count)
system.membus.pktSize_system.cpu.l2cache.mem_side_port::system.mem_ctrl.port       567552                       # Cumulative packet size per connected requestor and responder (Byte)
system.membus.pktSize_system.cpu.l2cache.mem_side_port::total       567552                       # Cumulative packet size per connected requestor and responder (Byte)
system.membus.pktSize::total                   567552                       # Cumulative packet size per connected requestor and responder (Byte)
system.membus.snoops                                0                       # Total snoops (Count)
system.membus.snoopTraffic                          0                       # Total snoop traffic (Byte)
system.membus.snoopFanout::samples               7369                       # Request fanout histogram (Count)
system.membus.snoopFanout::mean                     0                       # Request fanout histogram (Count)
system.membus.snoopFanout::stdev                    0                       # Request fanout histogram (Count)
system.membus.snoopFanout::underflows               0      0.00%      0.00% # Request fanout histogram (Count)
system.membus.snoopFanout::0                     7369    100.00%    100.00% # Request fanout histogram (Count)
system.membus.snoopFanout::1                        0      0.00%    100.00% # Request fanout histogram (Count)
system.membus.snoopFanout::overflows                0      0.00%    100.00% # Request fanout histogram (Count)
system.membus.snoopFanout::min_value                0                       # Request fanout histogram (Count)
system.membus.snoopFanout::max_value                0                       # Request fanout histogram (Count)
system.membus.snoopFanout::total                 7369                       # Request fanout histogram (Count)
system.membus.power_state.pwrStateResidencyTicks::UNDEFINED   5602367000                       # Cumulative time (in ticks) in various power states (Tick)
system.membus.reqLayer2.occupancy             8237000                       # Layer occupancy (ticks) (Tick)
system.membus.reqLayer2.utilization               0.0                       # Layer utilization (Ratio)
system.membus.respLayer0.occupancy           19722000                       # Layer occupancy (ticks) (Tick)
system.membus.respLayer0.utilization              0.0                       # Layer utilization (Ratio)
system.membus.snoop_filter.totRequests          10478                       # Total number of requests made to the snoop filter. (Count)
system.membus.snoop_filter.hitSingleRequests         3109                       # Number of requests hitting in the snoop filter with a single holder of the requested data. (Count)
system.membus.snoop_filter.hitMultiRequests            0                       # Number of requests hitting in the snoop filter with multiple (>1) holders of the requested data. (Count)
system.membus.snoop_filter.totSnoops                0                       # Total number of snoops made to the snoop filter. (Count)
system.membus.snoop_filter.hitSingleSnoops            0                       # Number of snoops hitting in the snoop filter with a single holder of the requested data. (Count)
system.membus.snoop_filter.hitMultiSnoops            0                       # Number of snoops hitting in the snoop filter with multiple (>1) holders of the requested data. (Count)
system.workload.inst.arm                            0                       # number of arm instructions executed (Count)
system.workload.inst.quiesce                        0                       # number of quiesce instructions executed (Count)

---------- End Simulation Statistics   ----------
