
---------- Begin Simulation Statistics ----------
simSeconds                                   0.005473                       # Number of seconds simulated (Second)
simTicks                                   5472799500                       # Number of ticks simulated (Tick)
finalTick                                  5472799500                       # Number of ticks from beginning of simulation (restored from checkpoints and never reset) (Tick)
simFreq                                  1000000000000                       # The number of ticks per simulated second ((Tick/Second))
hostSeconds                                    139.82                       # Real time elapsed on the host (Second)
hostTickRate                                 39140499                       # The number of ticks simulated per host second (ticks/s) ((Tick/Second))
hostMemory                                    1198500                       # Number of bytes of host memory used (Byte)
simInsts                                     19928450                       # Number of instructions simulated (Count)
simOps                                       35336477                       # Number of ops (including micro ops) simulated (Count)
hostInstRate                                   142525                       # Simulator instruction rate (inst/s) ((Count/Second))
hostOpRate                                     252720                       # Simulator op (including micro ops) rate (op/s) ((Count/Second))
system.clk_domain.clock                           500                       # Clock period in ticks (Tick)
system.clk_domain.voltage_domain.voltage            1                       # Voltage in Volts (Volt)
system.cpu.numCycles                         10945600                       # Number of cpu cycles simulated (Cycle)
system.cpu.numWorkItemsStarted                      0                       # Number of work items this cpu started (Count)
system.cpu.numWorkItemsCompleted                    0                       # Number of work items this cpu completed (Count)
system.cpu.instsAdded                        35929001                       # Number of instructions added to the IQ (excludes non-spec) (Count)
system.cpu.nonSpecInstsAdded                       38                       # Number of non-speculative instructions added to the IQ (Count)
system.cpu.instsIssued                       35777532                       # Number of instructions issued (Count)
system.cpu.squashedInstsIssued                   1321                       # Number of squashed instructions issued (Count)
system.cpu.squashedInstsExamined               592556                       # Number of squashed instructions iterated over during squash; mainly for profiling (Count)
system.cpu.squashedOperandsExamined            641802                       # Number of squashed operands that are examined and possibly removed from graph (Count)
system.cpu.squashedNonSpecRemoved                  20                       # Number of squashed non-spec instructions that were removed (Count)
system.cpu.numIssuedDist::samples            10835177                       # Number of insts issued each cycle (Count)
system.cpu.numIssuedDist::mean               3.301979                       # Number of insts issued each cycle (Count)
system.cpu.numIssuedDist::stdev              1.992317                       # Number of insts issued each cycle (Count)
system.cpu.numIssuedDist::underflows                0      0.00%      0.00% # Number of insts issued each cycle (Count)
system.cpu.numIssuedDist::0                   1022191      9.43%      9.43% # Number of insts issued each cycle (Count)
system.cpu.numIssuedDist::1                   1244586     11.49%     20.92% # Number of insts issued each cycle (Count)
system.cpu.numIssuedDist::2                   1008030      9.30%     30.22% # Number of insts issued each cycle (Count)
system.cpu.numIssuedDist::3                   3114795     28.75%     58.97% # Number of insts issued each cycle (Count)
system.cpu.numIssuedDist::4                   1653271     15.26%     74.23% # Number of insts issued each cycle (Count)
system.cpu.numIssuedDist::5                   1312753     12.12%     86.34% # Number of insts issued each cycle (Count)
system.cpu.numIssuedDist::6                    742033      6.85%     93.19% # Number of insts issued each cycle (Count)
system.cpu.numIssuedDist::7                    356690      3.29%     96.49% # Number of insts issued each cycle (Count)
system.cpu.numIssuedDist::8                    380828      3.51%    100.00% # Number of insts issued each cycle (Count)
system.cpu.numIssuedDist::overflows                 0      0.00%    100.00% # Number of insts issued each cycle (Count)
system.cpu.numIssuedDist::min_value                 0                       # Number of insts issued each cycle (Count)
system.cpu.numIssuedDist::max_value                 8                       # Number of insts issued each cycle (Count)
system.cpu.numIssuedDist::total              10835177                       # Number of insts issued each cycle (Count)
system.cpu.statFuBusy::No_OpClass                   0      0.00%      0.00% # attempts to use FU when none available (Count)
system.cpu.statFuBusy::IntAlu                  584804     95.29%     95.29% # attempts to use FU when none available (Count)
system.cpu.statFuBusy::IntMult                      0      0.00%     95.29% # attempts to use FU when none available (Count)
system.cpu.statFuBusy::IntDiv                       0      0.00%     95.29% # attempts to use FU when none available (Count)
system.cpu.statFuBusy::FloatAdd                     0      0.00%     95.29% # attempts to use FU when none available (Count)
system.cpu.statFuBusy::FloatCmp                     0      0.00%     95.29% # attempts to use FU when none available (Count)
system.cpu.statFuBusy::FloatCvt                     0      0.00%     95.29% # attempts to use FU when none available (Count)
system.cpu.statFuBusy::FloatMult                    0      0.00%     95.29% # attempts to use FU when none available (Count)
system.cpu.statFuBusy::FloatMultAcc                 0      0.00%     95.29% # attempts to use FU when none available (Count)
system.cpu.statFuBusy::FloatDiv                     0      0.00%     95.29% # attempts to use FU when none available (Count)
system.cpu.statFuBusy::FloatMisc                    0      0.00%     95.29% # attempts to use FU when none available (Count)
system.cpu.statFuBusy::FloatSqrt                    0      0.00%     95.29% # attempts to use FU when none available (Count)
system.cpu.statFuBusy::SimdAdd                      0      0.00%     95.29% # attempts to use FU when none available (Count)
system.cpu.statFuBusy::SimdAddAcc                   0      0.00%     95.29% # attempts to use FU when none available (Count)
system.cpu.statFuBusy::SimdAlu                   1019      0.17%     95.45% # attempts to use FU when none available (Count)
system.cpu.statFuBusy::SimdCmp                      0      0.00%     95.45% # attempts to use FU when none available (Count)
system.cpu.statFuBusy::SimdCvt                     31      0.01%     95.46% # attempts to use FU when none available (Count)
system.cpu.statFuBusy::SimdMisc                     4      0.00%     95.46% # attempts to use FU when none available (Count)
system.cpu.statFuBusy::SimdMult                     0      0.00%     95.46% # attempts to use FU when none available (Count)
system.cpu.statFuBusy::SimdMultAcc                  0      0.00%     95.46% # attempts to use FU when none available (Count)
system.cpu.statFuBusy::SimdShift                    0      0.00%     95.46% # attempts to use FU when none available (Count)
system.cpu.statFuBusy::SimdShiftAcc                 0      0.00%     95.46% # attempts to use FU when none available (Count)
system.cpu.statFuBusy::SimdDiv                      0      0.00%     95.46% # attempts to use FU when none available (Count)
system.cpu.statFuBusy::SimdSqrt                     0      0.00%     95.46% # attempts to use FU when none available (Count)
system.cpu.statFuBusy::SimdFloatAdd                 0      0.00%     95.46% # attempts to use FU when none available (Count)
system.cpu.statFuBusy::SimdFloatAlu                 0      0.00%     95.46% # attempts to use FU when none available (Count)
system.cpu.statFuBusy::SimdFloatCmp                 0      0.00%     95.46% # attempts to use FU when none available (Count)
system.cpu.statFuBusy::SimdFloatCvt                 0      0.00%     95.46% # attempts to use FU when none available (Count)
system.cpu.statFuBusy::SimdFloatDiv                 0      0.00%     95.46% # attempts to use FU when none available (Count)
system.cpu.statFuBusy::SimdFloatMisc                0      0.00%     95.46% # attempts to use FU when none available (Count)
system.cpu.statFuBusy::SimdFloatMult                0      0.00%     95.46% # attempts to use FU when none available (Count)
system.cpu.statFuBusy::SimdFloatMultAcc             0      0.00%     95.46% # attempts to use FU when none available (Count)
system.cpu.statFuBusy::SimdFloatSqrt                0      0.00%     95.46% # attempts to use FU when none available (Count)
system.cpu.statFuBusy::SimdReduceAdd                0      0.00%     95.46% # attempts to use FU when none available (Count)
system.cpu.statFuBusy::SimdReduceAlu                0      0.00%     95.46% # attempts to use FU when none available (Count)
system.cpu.statFuBusy::SimdReduceCmp                0      0.00%     95.46% # attempts to use FU when none available (Count)
system.cpu.statFuBusy::SimdFloatReduceAdd            0      0.00%     95.46% # attempts to use FU when none available (Count)
system.cpu.statFuBusy::SimdFloatReduceCmp            0      0.00%     95.46% # attempts to use FU when none available (Count)
system.cpu.statFuBusy::SimdAes                      0      0.00%     95.46% # attempts to use FU when none available (Count)
system.cpu.statFuBusy::SimdAesMix                   0      0.00%     95.46% # attempts to use FU when none available (Count)
system.cpu.statFuBusy::SimdSha1Hash                 0      0.00%     95.46% # attempts to use FU when none available (Count)
system.cpu.statFuBusy::SimdSha1Hash2                0      0.00%     95.46% # attempts to use FU when none available (Count)
system.cpu.statFuBusy::SimdSha256Hash               0      0.00%     95.46% # attempts to use FU when none available (Count)
system.cpu.statFuBusy::SimdSha256Hash2              0      0.00%     95.46% # attempts to use FU when none available (Count)
system.cpu.statFuBusy::SimdShaSigma2                0      0.00%     95.46% # attempts to use FU when none available (Count)
system.cpu.statFuBusy::SimdShaSigma3                0      0.00%     95.46% # attempts to use FU when none available (Count)
system.cpu.statFuBusy::SimdPredAlu                  0      0.00%     95.46% # attempts to use FU when none available (Count)
system.cpu.statFuBusy::MemRead                  18632      3.04%     98.49% # attempts to use FU when none available (Count)
system.cpu.statFuBusy::MemWrite                  2442      0.40%     98.89% # attempts to use FU when none available (Count)
system.cpu.statFuBusy::FloatMemRead              1974      0.32%     99.21% # attempts to use FU when none available (Count)
system.cpu.statFuBusy::FloatMemWrite             4828      0.79%    100.00% # attempts to use FU when none available (Count)
system.cpu.statFuBusy::IprAccess                    0      0.00%    100.00% # attempts to use FU when none available (Count)
system.cpu.statFuBusy::InstPrefetch                 0      0.00%    100.00% # attempts to use FU when none available (Count)
system.cpu.statIssuedInstType_0::No_OpClass       595066      1.66%      1.66% # Number of instructions issued per FU type, per thread (Count)
system.cpu.statIssuedInstType_0::IntAlu      20374683     56.95%     58.61% # Number of instructions issued per FU type, per thread (Count)
system.cpu.statIssuedInstType_0::IntMult       517536      1.45%     60.06% # Number of instructions issued per FU type, per thread (Count)
system.cpu.statIssuedInstType_0::IntDiv         54226      0.15%     60.21% # Number of instructions issued per FU type, per thread (Count)
system.cpu.statIssuedInstType_0::FloatAdd      1517348      4.24%     64.45% # Number of instructions issued per FU type, per thread (Count)
system.cpu.statIssuedInstType_0::FloatCmp            0      0.00%     64.45% # Number of instructions issued per FU type, per thread (Count)
system.cpu.statIssuedInstType_0::FloatCvt           32      0.00%     64.45% # Number of instructions issued per FU type, per thread (Count)
system.cpu.statIssuedInstType_0::FloatMult            0      0.00%     64.45% # Number of instructions issued per FU type, per thread (Count)
system.cpu.statIssuedInstType_0::FloatMultAcc            0      0.00%     64.45% # Number of instructions issued per FU type, per thread (Count)
system.cpu.statIssuedInstType_0::FloatDiv            0      0.00%     64.45% # Number of instructions issued per FU type, per thread (Count)
system.cpu.statIssuedInstType_0::FloatMisc            0      0.00%     64.45% # Number of instructions issued per FU type, per thread (Count)
system.cpu.statIssuedInstType_0::FloatSqrt            0      0.00%     64.45% # Number of instructions issued per FU type, per thread (Count)
system.cpu.statIssuedInstType_0::SimdAdd          458      0.00%     64.45% # Number of instructions issued per FU type, per thread (Count)
system.cpu.statIssuedInstType_0::SimdAddAcc            0      0.00%     64.45% # Number of instructions issued per FU type, per thread (Count)
system.cpu.statIssuedInstType_0::SimdAlu        19182      0.05%     64.51% # Number of instructions issued per FU type, per thread (Count)
system.cpu.statIssuedInstType_0::SimdCmp            8      0.00%     64.51% # Number of instructions issued per FU type, per thread (Count)
system.cpu.statIssuedInstType_0::SimdCvt        11122      0.03%     64.54% # Number of instructions issued per FU type, per thread (Count)
system.cpu.statIssuedInstType_0::SimdMisc        25006      0.07%     64.61% # Number of instructions issued per FU type, per thread (Count)
system.cpu.statIssuedInstType_0::SimdMult            0      0.00%     64.61% # Number of instructions issued per FU type, per thread (Count)
system.cpu.statIssuedInstType_0::SimdMultAcc            0      0.00%     64.61% # Number of instructions issued per FU type, per thread (Count)
system.cpu.statIssuedInstType_0::SimdShift          335      0.00%     64.61% # Number of instructions issued per FU type, per thread (Count)
system.cpu.statIssuedInstType_0::SimdShiftAcc            0      0.00%     64.61% # Number of instructions issued per FU type, per thread (Count)
system.cpu.statIssuedInstType_0::SimdDiv            0      0.00%     64.61% # Number of instructions issued per FU type, per thread (Count)
system.cpu.statIssuedInstType_0::SimdSqrt            0      0.00%     64.61% # Number of instructions issued per FU type, per thread (Count)
system.cpu.statIssuedInstType_0::SimdFloatAdd            0      0.00%     64.61% # Number of instructions issued per FU type, per thread (Count)
system.cpu.statIssuedInstType_0::SimdFloatAlu            0      0.00%     64.61% # Number of instructions issued per FU type, per thread (Count)
system.cpu.statIssuedInstType_0::SimdFloatCmp            0      0.00%     64.61% # Number of instructions issued per FU type, per thread (Count)
system.cpu.statIssuedInstType_0::SimdFloatCvt       508520      1.42%     66.03% # Number of instructions issued per FU type, per thread (Count)
system.cpu.statIssuedInstType_0::SimdFloatDiv            0      0.00%     66.03% # Number of instructions issued per FU type, per thread (Count)
system.cpu.statIssuedInstType_0::SimdFloatMisc            0      0.00%     66.03% # Number of instructions issued per FU type, per thread (Count)
system.cpu.statIssuedInstType_0::SimdFloatMult            0      0.00%     66.03% # Number of instructions issued per FU type, per thread (Count)
system.cpu.statIssuedInstType_0::SimdFloatMultAcc            0      0.00%     66.03% # Number of instructions issued per FU type, per thread (Count)
system.cpu.statIssuedInstType_0::SimdFloatSqrt            0      0.00%     66.03% # Number of instructions issued per FU type, per thread (Count)
system.cpu.statIssuedInstType_0::SimdReduceAdd            0      0.00%     66.03% # Number of instructions issued per FU type, per thread (Count)
system.cpu.statIssuedInstType_0::SimdReduceAlu            0      0.00%     66.03% # Number of instructions issued per FU type, per thread (Count)
system.cpu.statIssuedInstType_0::SimdReduceCmp            0      0.00%     66.03% # Number of instructions issued per FU type, per thread (Count)
system.cpu.statIssuedInstType_0::SimdFloatReduceAdd            0      0.00%     66.03% # Number of instructions issued per FU type, per thread (Count)
system.cpu.statIssuedInstType_0::SimdFloatReduceCmp            0      0.00%     66.03% # Number of instructions issued per FU type, per thread (Count)
system.cpu.statIssuedInstType_0::SimdAes            0      0.00%     66.03% # Number of instructions issued per FU type, per thread (Count)
system.cpu.statIssuedInstType_0::SimdAesMix            0      0.00%     66.03% # Number of instructions issued per FU type, per thread (Count)
system.cpu.statIssuedInstType_0::SimdSha1Hash            0      0.00%     66.03% # Number of instructions issued per FU type, per thread (Count)
system.cpu.statIssuedInstType_0::SimdSha1Hash2            0      0.00%     66.03% # Number of instructions issued per FU type, per thread (Count)
system.cpu.statIssuedInstType_0::SimdSha256Hash            0      0.00%     66.03% # Number of instructions issued per FU type, per thread (Count)
system.cpu.statIssuedInstType_0::SimdSha256Hash2            0      0.00%     66.03% # Number of instructions issued per FU type, per thread (Count)
system.cpu.statIssuedInstType_0::SimdShaSigma2            0      0.00%     66.03% # Number of instructions issued per FU type, per thread (Count)
system.cpu.statIssuedInstType_0::SimdShaSigma3            0      0.00%     66.03% # Number of instructions issued per FU type, per thread (Count)
system.cpu.statIssuedInstType_0::SimdPredAlu            0      0.00%     66.03% # Number of instructions issued per FU type, per thread (Count)
system.cpu.statIssuedInstType_0::MemRead      5998822     16.77%     82.80% # Number of instructions issued per FU type, per thread (Count)
system.cpu.statIssuedInstType_0::MemWrite      3075496      8.60%     91.39% # Number of instructions issued per FU type, per thread (Count)
system.cpu.statIssuedInstType_0::FloatMemRead      2047175      5.72%     97.11% # Number of instructions issued per FU type, per thread (Count)
system.cpu.statIssuedInstType_0::FloatMemWrite      1032517      2.89%    100.00% # Number of instructions issued per FU type, per thread (Count)
system.cpu.statIssuedInstType_0::IprAccess            0      0.00%    100.00% # Number of instructions issued per FU type, per thread (Count)
system.cpu.statIssuedInstType_0::InstPrefetch            0      0.00%    100.00% # Number of instructions issued per FU type, per thread (Count)
system.cpu.statIssuedInstType_0::total       35777532                       # Number of instructions issued per FU type, per thread (Count)
system.cpu.issueRate                         3.268668                       # Inst issue rate ((Count/Cycle))
system.cpu.fuBusy                              613734                       # FU busy when requested (Count)
system.cpu.fuBusyRate                        0.017154                       # FU busy rate (busy events/executed inst) ((Count/Count))
system.cpu.intInstQueueReads                 72657329                       # Number of integer instruction queue reads (Count)
system.cpu.intInstQueueWrites                31335591                       # Number of integer instruction queue writes (Count)
system.cpu.intInstQueueWakeupAccesses        30557278                       # Number of integer instruction queue wakeup accesses (Count)
system.cpu.fpInstQueueReads                  10347967                       # Number of floating instruction queue reads (Count)
system.cpu.fpInstQueueWrites                  5186522                       # Number of floating instruction queue writes (Count)
system.cpu.fpInstQueueWakeupAccesses          5160408                       # Number of floating instruction queue wakeup accesses (Count)
system.cpu.vecInstQueueReads                        0                       # Number of vector instruction queue reads (Count)
system.cpu.vecInstQueueWrites                       0                       # Number of vector instruction queue writes (Count)
system.cpu.vecInstQueueWakeupAccesses               0                       # Number of vector instruction queue wakeup accesses (Count)
system.cpu.intAluAccesses                    30618303                       # Number of integer alu accesses (Count)
system.cpu.fpAluAccesses                      5177897                       # Number of floating point alu accesses (Count)
system.cpu.vecAluAccesses                           0                       # Number of vector alu accesses (Count)
system.cpu.numInsts                          35744913                       # Number of executed instructions (Count)
system.cpu.numLoadInsts                       8041384                       # Number of load instructions executed (Count)
system.cpu.numSquashedInsts                     32619                       # Number of squashed instructions skipped in execute (Count)
system.cpu.numSwp                                   0                       # Number of swp insts executed (Count)
system.cpu.numNop                                   0                       # Number of nop insts executed (Count)
system.cpu.numRefs                           12145556                       # Number of memory reference insts executed (Count)
system.cpu.numBranches                        3323849                       # Number of branches executed (Count)
system.cpu.numStoreInsts                      4104172                       # Number of stores executed (Count)
system.cpu.numRate                           3.265688                       # Inst execution rate ((Count/Cycle))
system.cpu.timesIdled                            2966                       # Number of times that the entire CPU went into an idle state and unscheduled itself (Count)
system.cpu.idleCycles                          110423                       # Total number of cycles that the CPU has spent unscheduled due to idling (Cycle)
system.cpu.committedInsts                    19928450                       # Number of Instructions Simulated (Count)
system.cpu.committedOps                      35336477                       # Number of Ops (including micro ops) Simulated (Count)
system.cpu.cpi                               0.549245                       # CPI: Cycles Per Instruction ((Cycle/Count))
system.cpu.totalCpi                          0.549245                       # CPI: Total CPI of All Threads ((Cycle/Count))
system.cpu.ipc                               1.820681                       # IPC: Instructions Per Cycle ((Count/Cycle))
system.cpu.totalIpc                          1.820681                       # IPC: Total IPC of All Threads ((Count/Cycle))
system.cpu.intRegfileReads                   55827768                       # Number of integer regfile reads (Count)
system.cpu.intRegfileWrites                  24200978                       # Number of integer regfile writes (Count)
system.cpu.fpRegfileReads                     2181020                       # Number of floating regfile reads (Count)
system.cpu.fpRegfileWrites                    3611008                       # Number of floating regfile writes (Count)
system.cpu.ccRegfileReads                    10448180                       # number of cc regfile reads (Count)
system.cpu.ccRegfileWrites                    5911810                       # number of cc regfile writes (Count)
system.cpu.miscRegfileReads                  18256961                       # number of misc regfile reads (Count)
system.cpu.miscRegfileWrites                       18                       # number of misc regfile writes (Count)
system.cpu.MemDepUnit__0.insertedLoads        8064724                       # Number of loads inserted to the mem dependence unit. (Count)
system.cpu.MemDepUnit__0.insertedStores       4113958                       # Number of stores inserted to the mem dependence unit. (Count)
system.cpu.MemDepUnit__0.conflictingLoads      2574324                       # Number of conflicting loads. (Count)
system.cpu.MemDepUnit__0.conflictingStores       657855                       # Number of conflicting stores. (Count)
system.cpu.MemDepUnit__1.insertedLoads              0                       # Number of loads inserted to the mem dependence unit. (Count)
system.cpu.MemDepUnit__1.insertedStores             0                       # Number of stores inserted to the mem dependence unit. (Count)
system.cpu.MemDepUnit__1.conflictingLoads            0                       # Number of conflicting loads. (Count)
system.cpu.MemDepUnit__1.conflictingStores            0                       # Number of conflicting stores. (Count)
system.cpu.MemDepUnit__2.insertedLoads              0                       # Number of loads inserted to the mem dependence unit. (Count)
system.cpu.MemDepUnit__2.insertedStores             0                       # Number of stores inserted to the mem dependence unit. (Count)
system.cpu.MemDepUnit__2.conflictingLoads            0                       # Number of conflicting loads. (Count)
system.cpu.MemDepUnit__2.conflictingStores            0                       # Number of conflicting stores. (Count)
system.cpu.MemDepUnit__3.insertedLoads              0                       # Number of loads inserted to the mem dependence unit. (Count)
system.cpu.MemDepUnit__3.insertedStores             0                       # Number of stores inserted to the mem dependence unit. (Count)
system.cpu.MemDepUnit__3.conflictingLoads            0                       # Number of conflicting loads. (Count)
system.cpu.MemDepUnit__3.conflictingStores            0                       # Number of conflicting stores. (Count)
system.cpu.branchPred.lookups                 3391147                       # Number of BP lookups (Count)
system.cpu.branchPred.condPredicted           1652074                       # Number of conditional branches predicted (Count)
system.cpu.branchPred.condIncorrect             14947                       # Number of conditional branches incorrect (Count)
system.cpu.branchPred.BTBLookups              1385993                       # Number of BTB lookups (Count)
system.cpu.branchPred.BTBHits                 1381828                       # Number of BTB hits (Count)
system.cpu.branchPred.BTBHitRatio            0.996995                       # BTB Hit Ratio (Ratio)
system.cpu.branchPred.RASUsed                  574544                       # Number of times the RAS was used to get a target. (Count)
system.cpu.branchPred.RASIncorrect                991                       # Number of incorrect RAS predictions. (Count)
system.cpu.branchPred.indirectLookups          531215                       # Number of indirect predictor lookups. (Count)
system.cpu.branchPred.indirectHits             529752                       # Number of indirect target hits. (Count)
system.cpu.branchPred.indirectMisses             1463                       # Number of indirect misses. (Count)
system.cpu.branchPred.indirectMispredicted          312                       # Number of mispredicted indirect branches. (Count)
system.cpu.commit.commitSquashedInsts          555627                       # The number of squashed insts skipped by commit (Count)
system.cpu.commit.commitNonSpecStalls              18                       # The number of times commit has been forced to stall to communicate backwards (Count)
system.cpu.commit.branchMispredicts             13708                       # The number of times a branch was mispredicted (Count)
system.cpu.commit.numCommittedDist::samples     10755586                       # Number of insts commited each cycle (Count)
system.cpu.commit.numCommittedDist::mean     3.285407                       # Number of insts commited each cycle (Count)
system.cpu.commit.numCommittedDist::stdev     3.136479                       # Number of insts commited each cycle (Count)
system.cpu.commit.numCommittedDist::underflows            0      0.00%      0.00% # Number of insts commited each cycle (Count)
system.cpu.commit.numCommittedDist::0         3051918     28.38%     28.38% # Number of insts commited each cycle (Count)
system.cpu.commit.numCommittedDist::1          800900      7.45%     35.82% # Number of insts commited each cycle (Count)
system.cpu.commit.numCommittedDist::2         1949741     18.13%     53.95% # Number of insts commited each cycle (Count)
system.cpu.commit.numCommittedDist::3         1160352     10.79%     64.74% # Number of insts commited each cycle (Count)
system.cpu.commit.numCommittedDist::4          604018      5.62%     70.35% # Number of insts commited each cycle (Count)
system.cpu.commit.numCommittedDist::5           93486      0.87%     71.22% # Number of insts commited each cycle (Count)
system.cpu.commit.numCommittedDist::6           57425      0.53%     71.76% # Number of insts commited each cycle (Count)
system.cpu.commit.numCommittedDist::7          374981      3.49%     75.24% # Number of insts commited each cycle (Count)
system.cpu.commit.numCommittedDist::8         2662765     24.76%    100.00% # Number of insts commited each cycle (Count)
system.cpu.commit.numCommittedDist::overflows            0      0.00%    100.00% # Number of insts commited each cycle (Count)
system.cpu.commit.numCommittedDist::min_value            0                       # Number of insts commited each cycle (Count)
system.cpu.commit.numCommittedDist::max_value            8                       # Number of insts commited each cycle (Count)
system.cpu.commit.numCommittedDist::total     10755586                       # Number of insts commited each cycle (Count)
system.cpu.commit.instsCommitted             19928450                       # Number of instructions committed (Count)
system.cpu.commit.opsCommitted               35336477                       # Number of ops (including micro ops) committed (Count)
system.cpu.commit.memRefs                    12069539                       # Number of memory references committed (Count)
system.cpu.commit.loads                       7978510                       # Number of loads committed (Count)
system.cpu.commit.amos                              0                       # Number of atomic instructions committed (Count)
system.cpu.commit.membars                           0                       # Number of memory barriers committed (Count)
system.cpu.commit.branches                    3283692                       # Number of branches committed (Count)
system.cpu.commit.vectorInstructions                0                       # Number of committed Vector instructions. (Count)
system.cpu.commit.floating                    5154398                       # Number of committed floating point instructions. (Count)
system.cpu.commit.integer                    32657360                       # Number of committed integer instructions. (Count)
system.cpu.commit.functionCalls                563369                       # Number of function calls committed. (Count)
system.cpu.commit.committedInstType_0::No_OpClass       589130      1.67%      1.67% # Class of committed instruction (Count)
system.cpu.commit.committedInstType_0::IntAlu     20030633     56.69%     58.35% # Class of committed instruction (Count)
system.cpu.commit.committedInstType_0::IntMult       516165      1.46%     59.81% # Class of committed instruction (Count)
system.cpu.commit.committedInstType_0::IntDiv        53994      0.15%     59.97% # Class of committed instruction (Count)
system.cpu.commit.committedInstType_0::FloatAdd      1513865      4.28%     64.25% # Class of committed instruction (Count)
system.cpu.commit.committedInstType_0::FloatCmp            0      0.00%     64.25% # Class of committed instruction (Count)
system.cpu.commit.committedInstType_0::FloatCvt           32      0.00%     64.25% # Class of committed instruction (Count)
system.cpu.commit.committedInstType_0::FloatMult            0      0.00%     64.25% # Class of committed instruction (Count)
system.cpu.commit.committedInstType_0::FloatMultAcc            0      0.00%     64.25% # Class of committed instruction (Count)
system.cpu.commit.committedInstType_0::FloatDiv            0      0.00%     64.25% # Class of committed instruction (Count)
system.cpu.commit.committedInstType_0::FloatMisc            0      0.00%     64.25% # Class of committed instruction (Count)
system.cpu.commit.committedInstType_0::FloatSqrt            0      0.00%     64.25% # Class of committed instruction (Count)
system.cpu.commit.committedInstType_0::SimdAdd          326      0.00%     64.25% # Class of committed instruction (Count)
system.cpu.commit.committedInstType_0::SimdAddAcc            0      0.00%     64.25% # Class of committed instruction (Count)
system.cpu.commit.committedInstType_0::SimdAlu        18662      0.05%     64.30% # Class of committed instruction (Count)
system.cpu.commit.committedInstType_0::SimdCmp            6      0.00%     64.30% # Class of committed instruction (Count)
system.cpu.commit.committedInstType_0::SimdCvt        10720      0.03%     64.33% # Class of committed instruction (Count)
system.cpu.commit.committedInstType_0::SimdMisc        24821      0.07%     64.40% # Class of committed instruction (Count)
system.cpu.commit.committedInstType_0::SimdMult            0      0.00%     64.40% # Class of committed instruction (Count)
system.cpu.commit.committedInstType_0::SimdMultAcc            0      0.00%     64.40% # Class of committed instruction (Count)
system.cpu.commit.committedInstType_0::SimdShift           90      0.00%     64.40% # Class of committed instruction (Count)
system.cpu.commit.committedInstType_0::SimdShiftAcc            0      0.00%     64.40% # Class of committed instruction (Count)
system.cpu.commit.committedInstType_0::SimdDiv            0      0.00%     64.40% # Class of committed instruction (Count)
system.cpu.commit.committedInstType_0::SimdSqrt            0      0.00%     64.40% # Class of committed instruction (Count)
system.cpu.commit.committedInstType_0::SimdFloatAdd            0      0.00%     64.40% # Class of committed instruction (Count)
system.cpu.commit.committedInstType_0::SimdFloatAlu            0      0.00%     64.40% # Class of committed instruction (Count)
system.cpu.commit.committedInstType_0::SimdFloatCmp            0      0.00%     64.40% # Class of committed instruction (Count)
system.cpu.commit.committedInstType_0::SimdFloatCvt       508494      1.44%     65.84% # Class of committed instruction (Count)
system.cpu.commit.committedInstType_0::SimdFloatDiv            0      0.00%     65.84% # Class of committed instruction (Count)
system.cpu.commit.committedInstType_0::SimdFloatMisc            0      0.00%     65.84% # Class of committed instruction (Count)
system.cpu.commit.committedInstType_0::SimdFloatMult            0      0.00%     65.84% # Class of committed instruction (Count)
system.cpu.commit.committedInstType_0::SimdFloatMultAcc            0      0.00%     65.84% # Class of committed instruction (Count)
system.cpu.commit.committedInstType_0::SimdFloatSqrt            0      0.00%     65.84% # Class of committed instruction (Count)
system.cpu.commit.committedInstType_0::SimdReduceAdd            0      0.00%     65.84% # Class of committed instruction (Count)
system.cpu.commit.committedInstType_0::SimdReduceAlu            0      0.00%     65.84% # Class of committed instruction (Count)
system.cpu.commit.committedInstType_0::SimdReduceCmp            0      0.00%     65.84% # Class of committed instruction (Count)
system.cpu.commit.committedInstType_0::SimdFloatReduceAdd            0      0.00%     65.84% # Class of committed instruction (Count)
system.cpu.commit.committedInstType_0::SimdFloatReduceCmp            0      0.00%     65.84% # Class of committed instruction (Count)
system.cpu.commit.committedInstType_0::SimdAes            0      0.00%     65.84% # Class of committed instruction (Count)
system.cpu.commit.committedInstType_0::SimdAesMix            0      0.00%     65.84% # Class of committed instruction (Count)
system.cpu.commit.committedInstType_0::SimdSha1Hash            0      0.00%     65.84% # Class of committed instruction (Count)
system.cpu.commit.committedInstType_0::SimdSha1Hash2            0      0.00%     65.84% # Class of committed instruction (Count)
system.cpu.commit.committedInstType_0::SimdSha256Hash            0      0.00%     65.84% # Class of committed instruction (Count)
system.cpu.commit.committedInstType_0::SimdSha256Hash2            0      0.00%     65.84% # Class of committed instruction (Count)
system.cpu.commit.committedInstType_0::SimdShaSigma2            0      0.00%     65.84% # Class of committed instruction (Count)
system.cpu.commit.committedInstType_0::SimdShaSigma3            0      0.00%     65.84% # Class of committed instruction (Count)
system.cpu.commit.committedInstType_0::SimdPredAlu            0      0.00%     65.84% # Class of committed instruction (Count)
system.cpu.commit.committedInstType_0::MemRead      5941599     16.81%     82.66% # Class of committed instruction (Count)
system.cpu.commit.committedInstType_0::MemWrite      3058838      8.66%     91.31% # Class of committed instruction (Count)
system.cpu.commit.committedInstType_0::FloatMemRead      2036911      5.76%     97.08% # Class of committed instruction (Count)
system.cpu.commit.committedInstType_0::FloatMemWrite      1032191      2.92%    100.00% # Class of committed instruction (Count)
system.cpu.commit.committedInstType_0::IprAccess            0      0.00%    100.00% # Class of committed instruction (Count)
system.cpu.commit.committedInstType_0::InstPrefetch            0      0.00%    100.00% # Class of committed instruction (Count)
system.cpu.commit.committedInstType_0::total     35336477                       # Class of committed instruction (Count)
system.cpu.commit.commitEligibleSamples       2662765                       # number cycles where commit BW limit reached (Cycle)
system.cpu.dcache.demandHits::cpu.data        7880399                       # number of demand (read+write) hits (Count)
system.cpu.dcache.demandHits::total           7880399                       # number of demand (read+write) hits (Count)
system.cpu.dcache.overallHits::cpu.data       7880399                       # number of overall hits (Count)
system.cpu.dcache.overallHits::total          7880399                       # number of overall hits (Count)
system.cpu.dcache.demandMisses::cpu.data        34923                       # number of demand (read+write) misses (Count)
system.cpu.dcache.demandMisses::total           34923                       # number of demand (read+write) misses (Count)
system.cpu.dcache.overallMisses::cpu.data        34923                       # number of overall misses (Count)
system.cpu.dcache.overallMisses::total          34923                       # number of overall misses (Count)
system.cpu.dcache.demandMissLatency::cpu.data   1648185499                       # number of demand (read+write) miss ticks (Tick)
system.cpu.dcache.demandMissLatency::total   1648185499                       # number of demand (read+write) miss ticks (Tick)
system.cpu.dcache.overallMissLatency::cpu.data   1648185499                       # number of overall miss ticks (Tick)
system.cpu.dcache.overallMissLatency::total   1648185499                       # number of overall miss ticks (Tick)
system.cpu.dcache.demandAccesses::cpu.data      7915322                       # number of demand (read+write) accesses (Count)
system.cpu.dcache.demandAccesses::total       7915322                       # number of demand (read+write) accesses (Count)
system.cpu.dcache.overallAccesses::cpu.data      7915322                       # number of overall (read+write) accesses (Count)
system.cpu.dcache.overallAccesses::total      7915322                       # number of overall (read+write) accesses (Count)
system.cpu.dcache.demandMissRate::cpu.data     0.004412                       # miss rate for demand accesses (Ratio)
system.cpu.dcache.demandMissRate::total      0.004412                       # miss rate for demand accesses (Ratio)
system.cpu.dcache.overallMissRate::cpu.data     0.004412                       # miss rate for overall accesses (Ratio)
system.cpu.dcache.overallMissRate::total     0.004412                       # miss rate for overall accesses (Ratio)
system.cpu.dcache.demandAvgMissLatency::cpu.data 47194.842912                       # average overall miss latency ((Cycle/Count))
system.cpu.dcache.demandAvgMissLatency::total 47194.842912                       # average overall miss latency ((Cycle/Count))
system.cpu.dcache.overallAvgMissLatency::cpu.data 47194.842912                       # average overall miss latency ((Cycle/Count))
system.cpu.dcache.overallAvgMissLatency::total 47194.842912                       # average overall miss latency ((Cycle/Count))
system.cpu.dcache.blockedCycles::no_mshrs        17665                       # number of cycles access was blocked (Cycle)
system.cpu.dcache.blockedCycles::no_targets            0                       # number of cycles access was blocked (Cycle)
system.cpu.dcache.blockedCauses::no_mshrs          357                       # number of times access was blocked (Count)
system.cpu.dcache.blockedCauses::no_targets            0                       # number of times access was blocked (Count)
system.cpu.dcache.avgBlocked::no_mshrs      49.481793                       # average number of cycles each access was blocked ((Cycle/Count))
system.cpu.dcache.avgBlocked::no_targets          nan                       # average number of cycles each access was blocked ((Cycle/Count))
system.cpu.dcache.writebacks::writebacks         9352                       # number of writebacks (Count)
system.cpu.dcache.writebacks::total              9352                       # number of writebacks (Count)
system.cpu.dcache.demandMshrHits::cpu.data        20685                       # number of demand (read+write) MSHR hits (Count)
system.cpu.dcache.demandMshrHits::total         20685                       # number of demand (read+write) MSHR hits (Count)
system.cpu.dcache.overallMshrHits::cpu.data        20685                       # number of overall MSHR hits (Count)
system.cpu.dcache.overallMshrHits::total        20685                       # number of overall MSHR hits (Count)
system.cpu.dcache.demandMshrMisses::cpu.data        14238                       # number of demand (read+write) MSHR misses (Count)
system.cpu.dcache.demandMshrMisses::total        14238                       # number of demand (read+write) MSHR misses (Count)
system.cpu.dcache.overallMshrMisses::cpu.data        14238                       # number of overall MSHR misses (Count)
system.cpu.dcache.overallMshrMisses::total        14238                       # number of overall MSHR misses (Count)
system.cpu.dcache.demandMshrMissLatency::cpu.data    654433999                       # number of demand (read+write) MSHR miss ticks (Tick)
system.cpu.dcache.demandMshrMissLatency::total    654433999                       # number of demand (read+write) MSHR miss ticks (Tick)
system.cpu.dcache.overallMshrMissLatency::cpu.data    654433999                       # number of overall MSHR miss ticks (Tick)
system.cpu.dcache.overallMshrMissLatency::total    654433999                       # number of overall MSHR miss ticks (Tick)
system.cpu.dcache.demandMshrMissRate::cpu.data     0.001799                       # mshr miss ratio for demand accesses (Ratio)
system.cpu.dcache.demandMshrMissRate::total     0.001799                       # mshr miss ratio for demand accesses (Ratio)
system.cpu.dcache.overallMshrMissRate::cpu.data     0.001799                       # mshr miss ratio for overall accesses (Ratio)
system.cpu.dcache.overallMshrMissRate::total     0.001799                       # mshr miss ratio for overall accesses (Ratio)
system.cpu.dcache.demandAvgMshrMissLatency::cpu.data 45963.899354                       # average overall mshr miss latency ((Cycle/Count))
system.cpu.dcache.demandAvgMshrMissLatency::total 45963.899354                       # average overall mshr miss latency ((Cycle/Count))
system.cpu.dcache.overallAvgMshrMissLatency::cpu.data 45963.899354                       # average overall mshr miss latency ((Cycle/Count))
system.cpu.dcache.overallAvgMshrMissLatency::total 45963.899354                       # average overall mshr miss latency ((Cycle/Count))
system.cpu.dcache.replacements                  13726                       # number of replacements (Count)
system.cpu.dcache.ReadReq.hits::cpu.data      3793098                       # number of ReadReq hits (Count)
system.cpu.dcache.ReadReq.hits::total         3793098                       # number of ReadReq hits (Count)
system.cpu.dcache.ReadReq.misses::cpu.data        31195                       # number of ReadReq misses (Count)
system.cpu.dcache.ReadReq.misses::total         31195                       # number of ReadReq misses (Count)
system.cpu.dcache.ReadReq.missLatency::cpu.data   1496757000                       # number of ReadReq miss ticks (Tick)
system.cpu.dcache.ReadReq.missLatency::total   1496757000                       # number of ReadReq miss ticks (Tick)
system.cpu.dcache.ReadReq.accesses::cpu.data      3824293                       # number of ReadReq accesses(hits+misses) (Count)
system.cpu.dcache.ReadReq.accesses::total      3824293                       # number of ReadReq accesses(hits+misses) (Count)
system.cpu.dcache.ReadReq.missRate::cpu.data     0.008157                       # miss rate for ReadReq accesses (Ratio)
system.cpu.dcache.ReadReq.missRate::total     0.008157                       # miss rate for ReadReq accesses (Ratio)
system.cpu.dcache.ReadReq.avgMissLatency::cpu.data 47980.669979                       # average ReadReq miss latency ((Tick/Count))
system.cpu.dcache.ReadReq.avgMissLatency::total 47980.669979                       # average ReadReq miss latency ((Tick/Count))
system.cpu.dcache.ReadReq.mshrHits::cpu.data        19703                       # number of ReadReq MSHR hits (Count)
system.cpu.dcache.ReadReq.mshrHits::total        19703                       # number of ReadReq MSHR hits (Count)
system.cpu.dcache.ReadReq.mshrMisses::cpu.data        11492                       # number of ReadReq MSHR misses (Count)
system.cpu.dcache.ReadReq.mshrMisses::total        11492                       # number of ReadReq MSHR misses (Count)
system.cpu.dcache.ReadReq.mshrMissLatency::cpu.data    512752000                       # number of ReadReq MSHR miss ticks (Tick)
system.cpu.dcache.ReadReq.mshrMissLatency::total    512752000                       # number of ReadReq MSHR miss ticks (Tick)
system.cpu.dcache.ReadReq.mshrMissRate::cpu.data     0.003005                       # mshr miss rate for ReadReq accesses (Ratio)
system.cpu.dcache.ReadReq.mshrMissRate::total     0.003005                       # mshr miss rate for ReadReq accesses (Ratio)
system.cpu.dcache.ReadReq.avgMshrMissLatency::cpu.data 44618.169161                       # average ReadReq mshr miss latency ((Tick/Count))
system.cpu.dcache.ReadReq.avgMshrMissLatency::total 44618.169161                       # average ReadReq mshr miss latency ((Tick/Count))
system.cpu.dcache.WriteReq.hits::cpu.data      4087301                       # number of WriteReq hits (Count)
system.cpu.dcache.WriteReq.hits::total        4087301                       # number of WriteReq hits (Count)
system.cpu.dcache.WriteReq.misses::cpu.data         3728                       # number of WriteReq misses (Count)
system.cpu.dcache.WriteReq.misses::total         3728                       # number of WriteReq misses (Count)
system.cpu.dcache.WriteReq.missLatency::cpu.data    151428499                       # number of WriteReq miss ticks (Tick)
system.cpu.dcache.WriteReq.missLatency::total    151428499                       # number of WriteReq miss ticks (Tick)
system.cpu.dcache.WriteReq.accesses::cpu.data      4091029                       # number of WriteReq accesses(hits+misses) (Count)
system.cpu.dcache.WriteReq.accesses::total      4091029                       # number of WriteReq accesses(hits+misses) (Count)
system.cpu.dcache.WriteReq.missRate::cpu.data     0.000911                       # miss rate for WriteReq accesses (Ratio)
system.cpu.dcache.WriteReq.missRate::total     0.000911                       # miss rate for WriteReq accesses (Ratio)
system.cpu.dcache.WriteReq.avgMissLatency::cpu.data 40619.232564                       # average WriteReq miss latency ((Tick/Count))
system.cpu.dcache.WriteReq.avgMissLatency::total 40619.232564                       # average WriteReq miss latency ((Tick/Count))
system.cpu.dcache.WriteReq.mshrHits::cpu.data          982                       # number of WriteReq MSHR hits (Count)
system.cpu.dcache.WriteReq.mshrHits::total          982                       # number of WriteReq MSHR hits (Count)
system.cpu.dcache.WriteReq.mshrMisses::cpu.data         2746                       # number of WriteReq MSHR misses (Count)
system.cpu.dcache.WriteReq.mshrMisses::total         2746                       # number of WriteReq MSHR misses (Count)
system.cpu.dcache.WriteReq.mshrMissLatency::cpu.data    141681999                       # number of WriteReq MSHR miss ticks (Tick)
system.cpu.dcache.WriteReq.mshrMissLatency::total    141681999                       # number of WriteReq MSHR miss ticks (Tick)
system.cpu.dcache.WriteReq.mshrMissRate::cpu.data     0.000671                       # mshr miss rate for WriteReq accesses (Ratio)
system.cpu.dcache.WriteReq.mshrMissRate::total     0.000671                       # mshr miss rate for WriteReq accesses (Ratio)
system.cpu.dcache.WriteReq.avgMshrMissLatency::cpu.data 51595.775310                       # average WriteReq mshr miss latency ((Tick/Count))
system.cpu.dcache.WriteReq.avgMshrMissLatency::total 51595.775310                       # average WriteReq mshr miss latency ((Tick/Count))
system.cpu.dcache.power_state.pwrStateResidencyTicks::UNDEFINED   5472799500                       # Cumulative time (in ticks) in various power states (Tick)
system.cpu.dcache.tags.tagsInUse           509.249504                       # Average ticks per tags in use ((Tick/Count))
system.cpu.dcache.tags.totalRefs              7894637                       # Total number of references to valid blocks. (Count)
system.cpu.dcache.tags.sampledRefs              14238                       # Sample count of references to valid blocks. (Count)
system.cpu.dcache.tags.avgRefs             554.476542                       # Average number of references to valid blocks. ((Count/Count))
system.cpu.dcache.tags.warmupTick              168000                       # The tick when the warmup percentage was hit. (Tick)
system.cpu.dcache.tags.occupancies::cpu.data   509.249504                       # Average occupied blocks per tick, per requestor ((Count/Tick))
system.cpu.dcache.tags.avgOccs::cpu.data     0.994628                       # Average percentage of cache occupancy ((Ratio/Tick))
system.cpu.dcache.tags.avgOccs::total        0.994628                       # Average percentage of cache occupancy ((Ratio/Tick))
system.cpu.dcache.tags.occupanciesTaskId::1024          512                       # Occupied blocks per task id (Count)
system.cpu.dcache.tags.ageTaskId_1024::0           55                       # Occupied blocks per task id, per block age (Count)
system.cpu.dcache.tags.ageTaskId_1024::1           12                       # Occupied blocks per task id, per block age (Count)
system.cpu.dcache.tags.ageTaskId_1024::2          414                       # Occupied blocks per task id, per block age (Count)
system.cpu.dcache.tags.ageTaskId_1024::3           31                       # Occupied blocks per task id, per block age (Count)
system.cpu.dcache.tags.ratioOccsTaskId::1024            1                       # Ratio of occupied blocks and all blocks, per task id (Ratio)
system.cpu.dcache.tags.tagAccesses           15844882                       # Number of tag accesses (Count)
system.cpu.dcache.tags.dataAccesses          15844882                       # Number of data accesses (Count)
system.cpu.dcache.tags.power_state.pwrStateResidencyTicks::UNDEFINED   5472799500                       # Cumulative time (in ticks) in various power states (Tick)
system.cpu.decode.idleCycles                  3782721                       # Number of cycles decode is idle (Cycle)
system.cpu.decode.blockedCycles                738127                       # Number of cycles decode is blocked (Cycle)
system.cpu.decode.runCycles                   6212502                       # Number of cycles decode is running (Cycle)
system.cpu.decode.unblockCycles                 86544                       # Number of cycles decode is unblocking (Cycle)
system.cpu.decode.squashCycles                  15283                       # Number of cycles decode is squashing (Cycle)
system.cpu.decode.branchResolved              1377988                       # Number of times decode resolved a branch (Count)
system.cpu.decode.branchMispred                  1616                       # Number of times decode detected a branch misprediction (Count)
system.cpu.decode.decodedInsts               36096191                       # Number of instructions handled by decode (Count)
system.cpu.decode.squashedInsts                  3867                       # Number of squashed instructions handled by decode (Count)
system.cpu.fetch.icacheStallCycles            3855630                       # Number of cycles fetch is stalled on an Icache miss (Cycle)
system.cpu.fetch.insts                       20396359                       # Number of instructions fetch has processed (Count)
system.cpu.fetch.branches                     3391147                       # Number of branches that fetch encountered (Count)
system.cpu.fetch.predictedBranches            2486124                       # Number of branches that fetch has predicted taken (Count)
system.cpu.fetch.cycles                       6959280                       # Number of cycles fetch has run and was not squashing or blocked (Cycle)
system.cpu.fetch.squashCycles                   33776                       # Number of cycles fetch has spent squashing (Cycle)
system.cpu.fetch.miscStallCycles                  396                       # Number of cycles fetch has spent waiting on interrupts, or bad addresses, or out of MSHRs (Cycle)
system.cpu.fetch.pendingTrapStallCycles          2745                       # Number of stall cycles due to pending traps (Cycle)
system.cpu.fetch.pendingQuiesceStallCycles          145                       # Number of stall cycles due to pending quiesce instructions (Cycle)
system.cpu.fetch.icacheWaitRetryStallCycles           93                       # Number of stall cycles due to full MSHR (Cycle)
system.cpu.fetch.cacheLines                   3666840                       # Number of cache lines fetched (Count)
system.cpu.fetch.icacheSquashes                  5301                       # Number of outstanding Icache misses that were squashed (Count)
system.cpu.fetch.nisnDist::samples           10835177                       # Number of instructions fetched each cycle (Total) (Count)
system.cpu.fetch.nisnDist::mean              3.343270                       # Number of instructions fetched each cycle (Total) (Count)
system.cpu.fetch.nisnDist::stdev             3.479359                       # Number of instructions fetched each cycle (Total) (Count)
system.cpu.fetch.nisnDist::underflows               0      0.00%      0.00% # Number of instructions fetched each cycle (Total) (Count)
system.cpu.fetch.nisnDist::0                  4449266     41.06%     41.06% # Number of instructions fetched each cycle (Total) (Count)
system.cpu.fetch.nisnDist::1                  1091266     10.07%     51.13% # Number of instructions fetched each cycle (Total) (Count)
system.cpu.fetch.nisnDist::2                   106294      0.98%     52.12% # Number of instructions fetched each cycle (Total) (Count)
system.cpu.fetch.nisnDist::3                   128716      1.19%     53.30% # Number of instructions fetched each cycle (Total) (Count)
system.cpu.fetch.nisnDist::4                  1095590     10.11%     63.42% # Number of instructions fetched each cycle (Total) (Count)
system.cpu.fetch.nisnDist::5                   100758      0.93%     64.34% # Number of instructions fetched each cycle (Total) (Count)
system.cpu.fetch.nisnDist::6                   584449      5.39%     69.74% # Number of instructions fetched each cycle (Total) (Count)
system.cpu.fetch.nisnDist::7                    88627      0.82%     70.56% # Number of instructions fetched each cycle (Total) (Count)
system.cpu.fetch.nisnDist::8                  3190211     29.44%    100.00% # Number of instructions fetched each cycle (Total) (Count)
system.cpu.fetch.nisnDist::overflows                0      0.00%    100.00% # Number of instructions fetched each cycle (Total) (Count)
system.cpu.fetch.nisnDist::min_value                0                       # Number of instructions fetched each cycle (Total) (Count)
system.cpu.fetch.nisnDist::max_value                8                       # Number of instructions fetched each cycle (Total) (Count)
system.cpu.fetch.nisnDist::total             10835177                       # Number of instructions fetched each cycle (Total) (Count)
system.cpu.fetch.branchRate                  0.309818                       # Number of branch fetches per cycle (Ratio)
system.cpu.fetch.rate                        1.863430                       # Number of inst fetches per cycle ((Count/Cycle))
system.cpu.icache.demandHits::cpu.inst        3658977                       # number of demand (read+write) hits (Count)
system.cpu.icache.demandHits::total           3658977                       # number of demand (read+write) hits (Count)
system.cpu.icache.overallHits::cpu.inst       3658977                       # number of overall hits (Count)
system.cpu.icache.overallHits::total          3658977                       # number of overall hits (Count)
system.cpu.icache.demandMisses::cpu.inst         7863                       # number of demand (read+write) misses (Count)
system.cpu.icache.demandMisses::total            7863                       # number of demand (read+write) misses (Count)
system.cpu.icache.overallMisses::cpu.inst         7863                       # number of overall misses (Count)
system.cpu.icache.overallMisses::total           7863                       # number of overall misses (Count)
system.cpu.icache.demandMissLatency::cpu.inst    211197998                       # number of demand (read+write) miss ticks (Tick)
system.cpu.icache.demandMissLatency::total    211197998                       # number of demand (read+write) miss ticks (Tick)
system.cpu.icache.overallMissLatency::cpu.inst    211197998                       # number of overall miss ticks (Tick)
system.cpu.icache.overallMissLatency::total    211197998                       # number of overall miss ticks (Tick)
system.cpu.icache.demandAccesses::cpu.inst      3666840                       # number of demand (read+write) accesses (Count)
system.cpu.icache.demandAccesses::total       3666840                       # number of demand (read+write) accesses (Count)
system.cpu.icache.overallAccesses::cpu.inst      3666840                       # number of overall (read+write) accesses (Count)
system.cpu.icache.overallAccesses::total      3666840                       # number of overall (read+write) accesses (Count)
system.cpu.icache.demandMissRate::cpu.inst     0.002144                       # miss rate for demand accesses (Ratio)
system.cpu.icache.demandMissRate::total      0.002144                       # miss rate for demand accesses (Ratio)
system.cpu.icache.overallMissRate::cpu.inst     0.002144                       # miss rate for overall accesses (Ratio)
system.cpu.icache.overallMissRate::total     0.002144                       # miss rate for overall accesses (Ratio)
system.cpu.icache.demandAvgMissLatency::cpu.inst 26859.722498                       # average overall miss latency ((Cycle/Count))
system.cpu.icache.demandAvgMissLatency::total 26859.722498                       # average overall miss latency ((Cycle/Count))
system.cpu.icache.overallAvgMissLatency::cpu.inst 26859.722498                       # average overall miss latency ((Cycle/Count))
system.cpu.icache.overallAvgMissLatency::total 26859.722498                       # average overall miss latency ((Cycle/Count))
system.cpu.icache.blockedCycles::no_mshrs          282                       # number of cycles access was blocked (Cycle)
system.cpu.icache.blockedCycles::no_targets            0                       # number of cycles access was blocked (Cycle)
system.cpu.icache.blockedCauses::no_mshrs            6                       # number of times access was blocked (Count)
system.cpu.icache.blockedCauses::no_targets            0                       # number of times access was blocked (Count)
system.cpu.icache.avgBlocked::no_mshrs             47                       # average number of cycles each access was blocked ((Cycle/Count))
system.cpu.icache.avgBlocked::no_targets          nan                       # average number of cycles each access was blocked ((Cycle/Count))
system.cpu.icache.demandMshrHits::cpu.inst          458                       # number of demand (read+write) MSHR hits (Count)
system.cpu.icache.demandMshrHits::total           458                       # number of demand (read+write) MSHR hits (Count)
system.cpu.icache.overallMshrHits::cpu.inst          458                       # number of overall MSHR hits (Count)
system.cpu.icache.overallMshrHits::total          458                       # number of overall MSHR hits (Count)
system.cpu.icache.demandMshrMisses::cpu.inst         7405                       # number of demand (read+write) MSHR misses (Count)
system.cpu.icache.demandMshrMisses::total         7405                       # number of demand (read+write) MSHR misses (Count)
system.cpu.icache.overallMshrMisses::cpu.inst         7405                       # number of overall MSHR misses (Count)
system.cpu.icache.overallMshrMisses::total         7405                       # number of overall MSHR misses (Count)
system.cpu.icache.demandMshrMissLatency::cpu.inst    177634998                       # number of demand (read+write) MSHR miss ticks (Tick)
system.cpu.icache.demandMshrMissLatency::total    177634998                       # number of demand (read+write) MSHR miss ticks (Tick)
system.cpu.icache.overallMshrMissLatency::cpu.inst    177634998                       # number of overall MSHR miss ticks (Tick)
system.cpu.icache.overallMshrMissLatency::total    177634998                       # number of overall MSHR miss ticks (Tick)
system.cpu.icache.demandMshrMissRate::cpu.inst     0.002019                       # mshr miss ratio for demand accesses (Ratio)
system.cpu.icache.demandMshrMissRate::total     0.002019                       # mshr miss ratio for demand accesses (Ratio)
system.cpu.icache.overallMshrMissRate::cpu.inst     0.002019                       # mshr miss ratio for overall accesses (Ratio)
system.cpu.icache.overallMshrMissRate::total     0.002019                       # mshr miss ratio for overall accesses (Ratio)
system.cpu.icache.demandAvgMshrMissLatency::cpu.inst 23988.520999                       # average overall mshr miss latency ((Cycle/Count))
system.cpu.icache.demandAvgMshrMissLatency::total 23988.520999                       # average overall mshr miss latency ((Cycle/Count))
system.cpu.icache.overallAvgMshrMissLatency::cpu.inst 23988.520999                       # average overall mshr miss latency ((Cycle/Count))
system.cpu.icache.overallAvgMshrMissLatency::total 23988.520999                       # average overall mshr miss latency ((Cycle/Count))
system.cpu.icache.replacements                   6893                       # number of replacements (Count)
system.cpu.icache.ReadReq.hits::cpu.inst      3658977                       # number of ReadReq hits (Count)
system.cpu.icache.ReadReq.hits::total         3658977                       # number of ReadReq hits (Count)
system.cpu.icache.ReadReq.misses::cpu.inst         7863                       # number of ReadReq misses (Count)
system.cpu.icache.ReadReq.misses::total          7863                       # number of ReadReq misses (Count)
system.cpu.icache.ReadReq.missLatency::cpu.inst    211197998                       # number of ReadReq miss ticks (Tick)
system.cpu.icache.ReadReq.missLatency::total    211197998                       # number of ReadReq miss ticks (Tick)
system.cpu.icache.ReadReq.accesses::cpu.inst      3666840                       # number of ReadReq accesses(hits+misses) (Count)
system.cpu.icache.ReadReq.accesses::total      3666840                       # number of ReadReq accesses(hits+misses) (Count)
system.cpu.icache.ReadReq.missRate::cpu.inst     0.002144                       # miss rate for ReadReq accesses (Ratio)
system.cpu.icache.ReadReq.missRate::total     0.002144                       # miss rate for ReadReq accesses (Ratio)
system.cpu.icache.ReadReq.avgMissLatency::cpu.inst 26859.722498                       # average ReadReq miss latency ((Tick/Count))
system.cpu.icache.ReadReq.avgMissLatency::total 26859.722498                       # average ReadReq miss latency ((Tick/Count))
system.cpu.icache.ReadReq.mshrHits::cpu.inst          458                       # number of ReadReq MSHR hits (Count)
system.cpu.icache.ReadReq.mshrHits::total          458                       # number of ReadReq MSHR hits (Count)
system.cpu.icache.ReadReq.mshrMisses::cpu.inst         7405                       # number of ReadReq MSHR misses (Count)
system.cpu.icache.ReadReq.mshrMisses::total         7405                       # number of ReadReq MSHR misses (Count)
system.cpu.icache.ReadReq.mshrMissLatency::cpu.inst    177634998                       # number of ReadReq MSHR miss ticks (Tick)
system.cpu.icache.ReadReq.mshrMissLatency::total    177634998                       # number of ReadReq MSHR miss ticks (Tick)
system.cpu.icache.ReadReq.mshrMissRate::cpu.inst     0.002019                       # mshr miss rate for ReadReq accesses (Ratio)
system.cpu.icache.ReadReq.mshrMissRate::total     0.002019                       # mshr miss rate for ReadReq accesses (Ratio)
system.cpu.icache.ReadReq.avgMshrMissLatency::cpu.inst 23988.520999                       # average ReadReq mshr miss latency ((Tick/Count))
system.cpu.icache.ReadReq.avgMshrMissLatency::total 23988.520999                       # average ReadReq mshr miss latency ((Tick/Count))
system.cpu.icache.power_state.pwrStateResidencyTicks::UNDEFINED   5472799500                       # Cumulative time (in ticks) in various power states (Tick)
system.cpu.icache.tags.tagsInUse           480.098550                       # Average ticks per tags in use ((Tick/Count))
system.cpu.icache.tags.totalRefs              3666381                       # Total number of references to valid blocks. (Count)
system.cpu.icache.tags.sampledRefs               7404                       # Sample count of references to valid blocks. (Count)
system.cpu.icache.tags.avgRefs             495.189222                       # Average number of references to valid blocks. ((Count/Count))
system.cpu.icache.tags.warmupTick               82000                       # The tick when the warmup percentage was hit. (Tick)
system.cpu.icache.tags.occupancies::cpu.inst   480.098550                       # Average occupied blocks per tick, per requestor ((Count/Tick))
system.cpu.icache.tags.avgOccs::cpu.inst     0.937692                       # Average percentage of cache occupancy ((Ratio/Tick))
system.cpu.icache.tags.avgOccs::total        0.937692                       # Average percentage of cache occupancy ((Ratio/Tick))
system.cpu.icache.tags.occupanciesTaskId::1024          511                       # Occupied blocks per task id (Count)
system.cpu.icache.tags.ageTaskId_1024::0          107                       # Occupied blocks per task id, per block age (Count)
system.cpu.icache.tags.ageTaskId_1024::2          141                       # Occupied blocks per task id, per block age (Count)
system.cpu.icache.tags.ageTaskId_1024::3          263                       # Occupied blocks per task id, per block age (Count)
system.cpu.icache.tags.ratioOccsTaskId::1024     0.998047                       # Ratio of occupied blocks and all blocks, per task id (Ratio)
system.cpu.icache.tags.tagAccesses            7341084                       # Number of tag accesses (Count)
system.cpu.icache.tags.dataAccesses           7341084                       # Number of data accesses (Count)
system.cpu.icache.tags.power_state.pwrStateResidencyTicks::UNDEFINED   5472799500                       # Cumulative time (in ticks) in various power states (Tick)
system.cpu.iew.idleCycles                           0                       # Number of cycles IEW is idle (Cycle)
system.cpu.iew.squashCycles                     15283                       # Number of cycles IEW is squashing (Cycle)
system.cpu.iew.blockCycles                     275818                       # Number of cycles IEW is blocking (Cycle)
system.cpu.iew.unblockCycles                    11824                       # Number of cycles IEW is unblocking (Cycle)
system.cpu.iew.dispatchedInsts               35929039                       # Number of instructions dispatched to IQ (Count)
system.cpu.iew.dispSquashedInsts                  410                       # Number of squashed instructions skipped by dispatch (Count)
system.cpu.iew.dispLoadInsts                  8064724                       # Number of dispatched load instructions (Count)
system.cpu.iew.dispStoreInsts                 4113958                       # Number of dispatched store instructions (Count)
system.cpu.iew.dispNonSpecInsts                    36                       # Number of dispatched non-speculative instructions (Count)
system.cpu.iew.iqFullEvents                      3661                       # Number of times the IQ has become full, causing a stall (Count)
system.cpu.iew.lsqFullEvents                     7337                       # Number of times the LSQ has become full, causing a stall (Count)
system.cpu.iew.memOrderViolationEvents            537                       # Number of memory order violations (Count)
system.cpu.iew.predictedTakenIncorrect           6129                       # Number of branches that were predicted taken incorrectly (Count)
system.cpu.iew.predictedNotTakenIncorrect         9495                       # Number of branches that were predicted not taken incorrectly (Count)
system.cpu.iew.branchMispredicts                15624                       # Number of branch mispredicts detected at execute (Count)
system.cpu.iew.instsToCommit                 35724903                       # Cumulative count of insts sent to commit (Count)
system.cpu.iew.writebackCount                35717686                       # Cumulative count of insts written-back (Count)
system.cpu.iew.producerInst                  22861821                       # Number of instructions producing a value (Count)
system.cpu.iew.consumerInst                  30407795                       # Number of instructions consuming a value (Count)
system.cpu.iew.wbRate                        3.263200                       # Insts written-back per cycle ((Count/Cycle))
system.cpu.iew.wbFanout                      0.751841                       # Average fanout of values written-back ((Count/Count))
system.cpu.interrupts.clk_domain.clock           8000                       # Clock period in ticks (Tick)
system.cpu.l2cache.demandHits::cpu.inst          6027                       # number of demand (read+write) hits (Count)
system.cpu.l2cache.demandHits::cpu.data          7021                       # number of demand (read+write) hits (Count)
system.cpu.l2cache.demandHits::total            13048                       # number of demand (read+write) hits (Count)
system.cpu.l2cache.overallHits::cpu.inst         6027                       # number of overall hits (Count)
system.cpu.l2cache.overallHits::cpu.data         7021                       # number of overall hits (Count)
system.cpu.l2cache.overallHits::total           13048                       # number of overall hits (Count)
system.cpu.l2cache.demandMisses::cpu.inst         1378                       # number of demand (read+write) misses (Count)
system.cpu.l2cache.demandMisses::cpu.data         7217                       # number of demand (read+write) misses (Count)
system.cpu.l2cache.demandMisses::total           8595                       # number of demand (read+write) misses (Count)
system.cpu.l2cache.overallMisses::cpu.inst         1378                       # number of overall misses (Count)
system.cpu.l2cache.overallMisses::cpu.data         7217                       # number of overall misses (Count)
system.cpu.l2cache.overallMisses::total          8595                       # number of overall misses (Count)
system.cpu.l2cache.demandMissLatency::cpu.inst    103234000                       # number of demand (read+write) miss ticks (Tick)
system.cpu.l2cache.demandMissLatency::cpu.data    559212500                       # number of demand (read+write) miss ticks (Tick)
system.cpu.l2cache.demandMissLatency::total    662446500                       # number of demand (read+write) miss ticks (Tick)
system.cpu.l2cache.overallMissLatency::cpu.inst    103234000                       # number of overall miss ticks (Tick)
system.cpu.l2cache.overallMissLatency::cpu.data    559212500                       # number of overall miss ticks (Tick)
system.cpu.l2cache.overallMissLatency::total    662446500                       # number of overall miss ticks (Tick)
system.cpu.l2cache.demandAccesses::cpu.inst         7405                       # number of demand (read+write) accesses (Count)
system.cpu.l2cache.demandAccesses::cpu.data        14238                       # number of demand (read+write) accesses (Count)
system.cpu.l2cache.demandAccesses::total        21643                       # number of demand (read+write) accesses (Count)
system.cpu.l2cache.overallAccesses::cpu.inst         7405                       # number of overall (read+write) accesses (Count)
system.cpu.l2cache.overallAccesses::cpu.data        14238                       # number of overall (read+write) accesses (Count)
system.cpu.l2cache.overallAccesses::total        21643                       # number of overall (read+write) accesses (Count)
system.cpu.l2cache.demandMissRate::cpu.inst     0.186090                       # miss rate for demand accesses (Ratio)
system.cpu.l2cache.demandMissRate::cpu.data     0.506883                       # miss rate for demand accesses (Ratio)
system.cpu.l2cache.demandMissRate::total     0.397126                       # miss rate for demand accesses (Ratio)
system.cpu.l2cache.overallMissRate::cpu.inst     0.186090                       # miss rate for overall accesses (Ratio)
system.cpu.l2cache.overallMissRate::cpu.data     0.506883                       # miss rate for overall accesses (Ratio)
system.cpu.l2cache.overallMissRate::total     0.397126                       # miss rate for overall accesses (Ratio)
system.cpu.l2cache.demandAvgMissLatency::cpu.inst 74915.820029                       # average overall miss latency ((Cycle/Count))
system.cpu.l2cache.demandAvgMissLatency::cpu.data 77485.451018                       # average overall miss latency ((Cycle/Count))
system.cpu.l2cache.demandAvgMissLatency::total 77073.472949                       # average overall miss latency ((Cycle/Count))
system.cpu.l2cache.overallAvgMissLatency::cpu.inst 74915.820029                       # average overall miss latency ((Cycle/Count))
system.cpu.l2cache.overallAvgMissLatency::cpu.data 77485.451018                       # average overall miss latency ((Cycle/Count))
system.cpu.l2cache.overallAvgMissLatency::total 77073.472949                       # average overall miss latency ((Cycle/Count))
system.cpu.l2cache.blockedCycles::no_mshrs            0                       # number of cycles access was blocked (Cycle)
system.cpu.l2cache.blockedCycles::no_targets            0                       # number of cycles access was blocked (Cycle)
system.cpu.l2cache.blockedCauses::no_mshrs            0                       # number of times access was blocked (Count)
system.cpu.l2cache.blockedCauses::no_targets            0                       # number of times access was blocked (Count)
system.cpu.l2cache.avgBlocked::no_mshrs           nan                       # average number of cycles each access was blocked ((Cycle/Count))
system.cpu.l2cache.avgBlocked::no_targets          nan                       # average number of cycles each access was blocked ((Cycle/Count))
system.cpu.l2cache.writebacks::writebacks         4253                       # number of writebacks (Count)
system.cpu.l2cache.writebacks::total             4253                       # number of writebacks (Count)
system.cpu.l2cache.demandMshrMisses::cpu.inst         1378                       # number of demand (read+write) MSHR misses (Count)
system.cpu.l2cache.demandMshrMisses::cpu.data         7217                       # number of demand (read+write) MSHR misses (Count)
system.cpu.l2cache.demandMshrMisses::total         8595                       # number of demand (read+write) MSHR misses (Count)
system.cpu.l2cache.overallMshrMisses::cpu.inst         1378                       # number of overall MSHR misses (Count)
system.cpu.l2cache.overallMshrMisses::cpu.data         7217                       # number of overall MSHR misses (Count)
system.cpu.l2cache.overallMshrMisses::total         8595                       # number of overall MSHR misses (Count)
system.cpu.l2cache.demandMshrMissLatency::cpu.inst     89464000                       # number of demand (read+write) MSHR miss ticks (Tick)
system.cpu.l2cache.demandMshrMissLatency::cpu.data    487042500                       # number of demand (read+write) MSHR miss ticks (Tick)
system.cpu.l2cache.demandMshrMissLatency::total    576506500                       # number of demand (read+write) MSHR miss ticks (Tick)
system.cpu.l2cache.overallMshrMissLatency::cpu.inst     89464000                       # number of overall MSHR miss ticks (Tick)
system.cpu.l2cache.overallMshrMissLatency::cpu.data    487042500                       # number of overall MSHR miss ticks (Tick)
system.cpu.l2cache.overallMshrMissLatency::total    576506500                       # number of overall MSHR miss ticks (Tick)
system.cpu.l2cache.demandMshrMissRate::cpu.inst     0.186090                       # mshr miss ratio for demand accesses (Ratio)
[...]
system.mem_ctrl.dram.bytesWritten::total       272192                       # Number of bytes written to this memory (Byte)
system.mem_ctrl.dram.numReads::cpu.inst          1377                       # Number of read requests responded to by this memory (Count)
system.mem_ctrl.dram.numReads::cpu.data          7217                       # Number of read requests responded to by this memory (Count)
system.mem_ctrl.dram.numReads::total             8594                       # Number of read requests responded to by this memory (Count)
system.mem_ctrl.dram.numWrites::writebacks         4253                       # Number of write requests responded to by this memory (Count)
system.mem_ctrl.dram.numWrites::total            4253                       # Number of write requests responded to by this memory (Count)
system.mem_ctrl.dram.bwRead::cpu.inst        16102910                       # Total read bandwidth from this memory ((Byte/Second))
system.mem_ctrl.dram.bwRead::cpu.data        84397026                       # Total read bandwidth from this memory ((Byte/Second))
system.mem_ctrl.dram.bwRead::total          100499936                       # Total read bandwidth from this memory ((Byte/Second))
system.mem_ctrl.dram.bwInstRead::cpu.inst     16102910                       # Instruction read bandwidth from this memory ((Byte/Second))
system.mem_ctrl.dram.bwInstRead::total       16102910                       # Instruction read bandwidth from this memory ((Byte/Second))
system.mem_ctrl.dram.bwWrite::writebacks     49735423                       # Write bandwidth from this memory ((Byte/Second))
system.mem_ctrl.dram.bwWrite::total          49735423                       # Write bandwidth from this memory ((Byte/Second))
system.mem_ctrl.dram.bwTotal::writebacks     49735423                       # Total bandwidth to/from this memory ((Byte/Second))
system.mem_ctrl.dram.bwTotal::cpu.inst       16102910                       # Total bandwidth to/from this memory ((Byte/Second))
system.mem_ctrl.dram.bwTotal::cpu.data       84397026                       # Total bandwidth to/from this memory ((Byte/Second))
system.mem_ctrl.dram.bwTotal::total         150235359                       # Total bandwidth to/from this memory ((Byte/Second))
system.mem_ctrl.dram.readBursts                  8584                       # Number of DRAM read bursts (Count)
system.mem_ctrl.dram.writeBursts                 4230                       # Number of DRAM write bursts (Count)
system.mem_ctrl.dram.perBankRdBursts::0           719                       # Per bank write bursts (Count)
system.mem_ctrl.dram.perBankRdBursts::1           697                       # Per bank write bursts (Count)
system.mem_ctrl.dram.perBankRdBursts::2           946                       # Per bank write bursts (Count)
system.mem_ctrl.dram.perBankRdBursts::3           570                       # Per bank write bursts (Count)
system.mem_ctrl.dram.perBankRdBursts::4           470                       # Per bank write bursts (Count)
system.mem_ctrl.dram.perBankRdBursts::5           381                       # Per bank write bursts (Count)
system.mem_ctrl.dram.perBankRdBursts::6           407                       # Per bank write bursts (Count)
system.mem_ctrl.dram.perBankRdBursts::7           321                       # Per bank write bursts (Count)
system.mem_ctrl.dram.perBankRdBursts::8           358                       # Per bank write bursts (Count)
system.mem_ctrl.dram.perBankRdBursts::9           466                       # Per bank write bursts (Count)
system.mem_ctrl.dram.perBankRdBursts::10          596                       # Per bank write bursts (Count)
system.mem_ctrl.dram.perBankRdBursts::11          512                       # Per bank write bursts (Count)
system.mem_ctrl.dram.perBankRdBursts::12          419                       # Per bank write bursts (Count)
system.mem_ctrl.dram.perBankRdBursts::13          521                       # Per bank write bursts (Count)
system.mem_ctrl.dram.perBankRdBursts::14          534                       # Per bank write bursts (Count)
system.mem_ctrl.dram.perBankRdBursts::15          667                       # Per bank write bursts (Count)
system.mem_ctrl.dram.perBankWrBursts::0           397                       # Per bank write bursts (Count)
system.mem_ctrl.dram.perBankWrBursts::1           356                       # Per bank write bursts (Count)
system.mem_ctrl.dram.perBankWrBursts::2           551                       # Per bank write bursts (Count)
system.mem_ctrl.dram.perBankWrBursts::3           323                       # Per bank write bursts (Count)
system.mem_ctrl.dram.perBankWrBursts::4           145                       # Per bank write bursts (Count)
system.mem_ctrl.dram.perBankWrBursts::5           120                       # Per bank write bursts (Count)
system.mem_ctrl.dram.perBankWrBursts::6           249                       # Per bank write bursts (Count)
system.mem_ctrl.dram.perBankWrBursts::7           128                       # Per bank write bursts (Count)
system.mem_ctrl.dram.perBankWrBursts::8           119                       # Per bank write bursts (Count)
system.mem_ctrl.dram.perBankWrBursts::9           187                       # Per bank write bursts (Count)
system.mem_ctrl.dram.perBankWrBursts::10          241                       # Per bank write bursts (Count)
system.mem_ctrl.dram.perBankWrBursts::11          219                       # Per bank write bursts (Count)
system.mem_ctrl.dram.perBankWrBursts::12          128                       # Per bank write bursts (Count)
system.mem_ctrl.dram.perBankWrBursts::13          296                       # Per bank write bursts (Count)
system.mem_ctrl.dram.perBankWrBursts::14          382                       # Per bank write bursts (Count)
system.mem_ctrl.dram.perBankWrBursts::15          389                       # Per bank write bursts (Count)
system.mem_ctrl.dram.totQLat                108937500                       # Total ticks spent queuing (Tick)
system.mem_ctrl.dram.totBusLat               42920000                       # Total ticks spent in databus transfers (Tick)
system.mem_ctrl.dram.totMemAccLat           269887500                       # Total ticks spent from burst creation until serviced by the DRAM (Tick)
system.mem_ctrl.dram.avgQLat                 12690.76                       # Average queueing delay per DRAM burst ((Tick/Count))
system.mem_ctrl.dram.avgBusLat                5000.00                       # Average bus latency per DRAM burst ((Tick/Count))
system.mem_ctrl.dram.avgMemAccLat            31440.76                       # Average memory access latency per DRAM burst ((Tick/Count))
system.mem_ctrl.dram.readRowHits                 7044                       # Number of row buffer hits during reads (Count)
system.mem_ctrl.dram.writeRowHits                3733                       # Number of row buffer hits during writes (Count)
system.mem_ctrl.dram.readRowHitRate             82.06                       # Row buffer hit rate for reads (Ratio)
system.mem_ctrl.dram.writeRowHitRate            88.25                       # Row buffer hit rate for writes (Ratio)
system.mem_ctrl.dram.bytesPerActivate::samples         2022                       # Bytes accessed per row activation (Byte)
system.mem_ctrl.dram.bytesPerActivate::mean   403.244313                       # Bytes accessed per row activation (Byte)
system.mem_ctrl.dram.bytesPerActivate::gmean   269.199712                       # Bytes accessed per row activation (Byte)
system.mem_ctrl.dram.bytesPerActivate::stdev   336.341734                       # Bytes accessed per row activation (Byte)
system.mem_ctrl.dram.bytesPerActivate::0-127          396     19.58%     19.58% # Bytes accessed per row activation (Byte)
system.mem_ctrl.dram.bytesPerActivate::128-255          538     26.61%     46.19% # Bytes accessed per row activation (Byte)
system.mem_ctrl.dram.bytesPerActivate::256-383          168      8.31%     54.50% # Bytes accessed per row activation (Byte)
system.mem_ctrl.dram.bytesPerActivate::384-511          287     14.19%     68.69% # Bytes accessed per row activation (Byte)
system.mem_ctrl.dram.bytesPerActivate::512-639          141      6.97%     75.67% # Bytes accessed per row activation (Byte)
system.mem_ctrl.dram.bytesPerActivate::640-767           65      3.21%     78.88% # Bytes accessed per row activation (Byte)
system.mem_ctrl.dram.bytesPerActivate::768-895           71      3.51%     82.39% # Bytes accessed per row activation (Byte)
system.mem_ctrl.dram.bytesPerActivate::896-1023           54      2.67%     85.06% # Bytes accessed per row activation (Byte)
system.mem_ctrl.dram.bytesPerActivate::1024-1151          302     14.94%    100.00% # Bytes accessed per row activation (Byte)
system.mem_ctrl.dram.bytesPerActivate::total         2022                       # Bytes accessed per row activation (Byte)
system.mem_ctrl.dram.bytesRead                 549376                       # Total bytes read (Byte)
system.mem_ctrl.dram.bytesWritten              270720                       # Total bytes written (Byte)
system.mem_ctrl.dram.avgRdBW               100.382994                       # Average DRAM read bandwidth in MiBytes/s ((Byte/Second))
system.mem_ctrl.dram.avgWrBW                49.466457                       # Average DRAM write bandwidth in MiBytes/s ((Byte/Second))
system.mem_ctrl.dram.peakBW                  12800.00                       # Theoretical peak bandwidth in MiByte/s ((Byte/Second))
system.mem_ctrl.dram.busUtil                     1.17                       # Data bus utilization in percentage (Ratio)
system.mem_ctrl.dram.busUtilRead                 0.78                       # Data bus utilization in percentage for reads (Ratio)
system.mem_ctrl.dram.busUtilWrite                0.39                       # Data bus utilization in percentage for writes (Ratio)
system.mem_ctrl.dram.pageHitRate                84.10                       # Row buffer hit rate, read and write combined (Ratio)
system.mem_ctrl.dram.power_state.pwrStateResidencyTicks::UNDEFINED   5472799500                       # Cumulative time (in ticks) in various power states (Tick)
system.mem_ctrl.dram.rank0.actEnergy          7768320                       # Energy for activate commands per rank (pJ) (Joule)
system.mem_ctrl.dram.rank0.preEnergy          4102395                       # Energy for precharge commands per rank (pJ) (Joule)
system.mem_ctrl.dram.rank0.readEnergy        32208540                       # Energy for read commands per rank (pJ) (Joule)
system.mem_ctrl.dram.rank0.writeEnergy       11844180                       # Energy for write commands per rank (pJ) (Joule)
system.mem_ctrl.dram.rank0.refreshEnergy 431477280.000000                       # Energy for refresh commands per rank (pJ) (Joule)
system.mem_ctrl.dram.rank0.actBackEnergy   1195388040                       # Energy for active background per rank (pJ) (Joule)
system.mem_ctrl.dram.rank0.preBackEnergy   1094912640                       # Energy for precharge background per rank (pJ) (Joule)
system.mem_ctrl.dram.rank0.actPowerDownEnergy            0                       # Energy for active power-down per rank (pJ) (Joule)
system.mem_ctrl.dram.rank0.prePowerDownEnergy            0                       # Energy for precharge power-down per rank (pJ) (Joule)
system.mem_ctrl.dram.rank0.selfRefreshEnergy            0                       # Energy for self refresh per rank (pJ) (Joule)
system.mem_ctrl.dram.rank0.totalEnergy     2777701395                       # Total energy per rank (pJ) (Joule)
system.mem_ctrl.dram.rank0.averagePower    507.546713                       # Core power per rank (mW) (Watt)
system.mem_ctrl.dram.rank0.totalIdleTime            0                       # Total Idle time Per DRAM Rank (Tick)
system.mem_ctrl.dram.rank0.pwrStateTime::IDLE   2834564000                       # Time in different power states (Tick)
system.mem_ctrl.dram.rank0.pwrStateTime::REF    182520000                       # Time in different power states (Tick)
system.mem_ctrl.dram.rank0.pwrStateTime::SREF            0                       # Time in different power states (Tick)
system.mem_ctrl.dram.rank0.pwrStateTime::PRE_PDN            0                       # Time in different power states (Tick)
system.mem_ctrl.dram.rank0.pwrStateTime::ACT   2455715500                       # Time in different power states (Tick)
system.mem_ctrl.dram.rank0.pwrStateTime::ACT_PDN            0                       # Time in different power states (Tick)
system.mem_ctrl.dram.rank1.actEnergy          6775860                       # Energy for activate commands per rank (pJ) (Joule)
system.mem_ctrl.dram.rank1.preEnergy          3571095                       # Energy for precharge commands per rank (pJ) (Joule)
system.mem_ctrl.dram.rank1.readEnergy        29081220                       # Energy for read commands per rank (pJ) (Joule)
system.mem_ctrl.dram.rank1.writeEnergy       10236420                       # Energy for write commands per rank (pJ) (Joule)
system.mem_ctrl.dram.rank1.refreshEnergy 431477280.000000                       # Energy for refresh commands per rank (pJ) (Joule)
system.mem_ctrl.dram.rank1.actBackEnergy    830099550                       # Energy for active background per rank (pJ) (Joule)
system.mem_ctrl.dram.rank1.preBackEnergy   1402524000                       # Energy for precharge background per rank (pJ) (Joule)
system.mem_ctrl.dram.rank1.actPowerDownEnergy            0                       # Energy for active power-down per rank (pJ) (Joule)
system.mem_ctrl.dram.rank1.prePowerDownEnergy            0                       # Energy for precharge power-down per rank (pJ) (Joule)
system.mem_ctrl.dram.rank1.selfRefreshEnergy            0                       # Energy for self refresh per rank (pJ) (Joule)
system.mem_ctrl.dram.rank1.totalEnergy     2713765425                       # Total energy per rank (pJ) (Joule)
system.mem_ctrl.dram.rank1.averagePower    495.864214                       # Core power per rank (mW) (Watt)
system.mem_ctrl.dram.rank1.totalIdleTime            0                       # Total Idle time Per DRAM Rank (Tick)
system.mem_ctrl.dram.rank1.pwrStateTime::IDLE   3636885000                       # Time in different power states (Tick)
system.mem_ctrl.dram.rank1.pwrStateTime::REF    182520000                       # Time in different power states (Tick)
system.mem_ctrl.dram.rank1.pwrStateTime::SREF            0                       # Time in different power states (Tick)
system.mem_ctrl.dram.rank1.pwrStateTime::PRE_PDN            0                       # Time in different power states (Tick)
system.mem_ctrl.dram.rank1.pwrStateTime::ACT   1653394500                       # Time in different power states (Tick)
system.mem_ctrl.dram.rank1.pwrStateTime::ACT_PDN            0                       # Time in different power states (Tick)
system.mem_ctrl.power_state.pwrStateResidencyTicks::UNDEFINED   5472799500                       # Cumulative time (in ticks) in various power states (Tick)
system.membus.transDist::ReadResp                6930                       # Transaction distribution (Count)
system.membus.transDist::WritebackDirty          4253                       # Transaction distribution (Count)
system.membus.transDist::CleanEvict              2079                       # Transaction distribution (Count)
system.membus.transDist::ReadExReq               1664                       # Transaction distribution (Count)
system.membus.transDist::ReadExResp              1664                       # Transaction distribution (Count)
system.membus.transDist::ReadSharedReq           6930                       # Transaction distribution (Count)
system.membus.pktCount_system.cpu.l2cache.mem_side_port::system.mem_ctrl.port        23520                       # Packet count per connected requestor and responder (Count)
system.membus.pktCount_system.cpu.l2cache.mem_side_port::total        23520                       # Packet count per connected requestor and responder (Count)
system.membus.pktCount::total                   23520                       # Packet count per connected requestor and responder (Count)
system.membus.pktSize_system.cpu.l2cache.mem_side_port::system.mem_ctrl.port       822208                       # Cumulative packet size per connected requestor and responder (Byte)
system.membus.pktSize_system.cpu.l2cache.mem_side_port::total       822208                       # Cumulative packet size per connected requestor and responder (Byte)
system.membus.pktSize::total                   822208                       # Cumulative packet size per connected requestor and responder (Byte)
system.membus.snoops                                0                       # Total snoops (Count)
system.membus.snoopTraffic                          0                       # Total snoop traffic (Byte)
system.membus.snoopFanout::samples               8594                       # Request fanout histogram (Count)
system.membus.snoopFanout::mean                     0                       # Request fanout histogram (Count)
system.membus.snoopFanout::stdev                    0                       # Request fanout histogram (Count)
system.membus.snoopFanout::underflows               0      0.00%      0.00% # Request fanout histogram (Count)
system.membus.snoopFanout::0                     8594    100.00%    100.00% # Request fanout histogram (Count)
system.membus.snoopFanout::1                        0      0.00%    100.00% # Request fanout histogram (Count)
system.membus.snoopFanout::overflows                0      0.00%    100.00% # Request fanout histogram (Count)
system.membus.snoopFanout::min_value                0                       # Request fanout histogram (Count)
system.membus.snoopFanout::max_value                0                       # Request fanout histogram (Count)
system.membus.snoopFanout::total                 8594                       # Request fanout histogram (Count)
system.membus.power_state.pwrStateResidencyTicks::UNDEFINED   5472799500                       # Cumulative time (in ticks) in various power states (Tick)
system.membus.reqLayer2.occupancy            15969000                       # Layer occupancy (ticks) (Tick)
system.membus.reqLayer2.utilization               0.0                       # Layer utilization (Ratio)
system.membus.respLayer0.occupancy           23084000                       # Layer occupancy (ticks) (Tick)
system.membus.respLayer0.utilization              0.0                       # Layer utilization (Ratio)
system.membus.snoop_filter.totRequests          14926                       # Total number of requests made to the snoop filter. (Count)
system.membus.snoop_filter.hitSingleRequests         6333                       # Number of requests hitting in the snoop filter with a single holder of the requested data. (Count)
system.membus.snoop_filter.hitMultiRequests            0                       # Number of requests hitting in the snoop filter with multiple (>1) holders of the requested data. (Count)
system.membus.snoop_filter.totSnoops                0                       # Total number of snoops made to the snoop filter. (Count)
system.membus.snoop_filter.hitSingleSnoops            0                       # Number of snoops hitting in the snoop filter with a single holder of the requested data. (Count)
system.membus.snoop_filter.hitMultiSnoops            0                       # Number of snoops hitting in the snoop filter with multiple (>1) holders of the requested data. (Count)
system.workload.inst.arm                            0                       # number of arm instructions executed (Count)
system.workload.inst.quiesce                        0                       # number of quiesce instructions executed (Count)

---------- End Simulation Statistics   ----------
