
---------- Begin Simulation Statistics ----------
simSeconds                                   0.005372                       # Number of seconds simulated (Second)
simTicks                                   5372029500                       # Number of ticks simulated (Tick)
finalTick                                  5372029500                       # Number of ticks from beginning of simulation (restored from checkpoints and never reset) (Tick)
simFreq                                  1000000000000                       # The number of ticks per simulated second ((Tick/Second))
hostSeconds                                    136.93                       # Real time elapsed on the host (Second)
hostTickRate                                 39232867                       # The number of ticks simulated per host second (ticks/s) ((Tick/Second))
hostMemory                                    1198756                       # Number of bytes of host memory used (Byte)
simInsts                                     19928450                       # Number of instructions simulated (Count)
simOps                                       35336477                       # Number of ops (including micro ops) simulated (Count)
hostInstRate                                   145541                       # Simulator instruction rate (inst/s) ((Count/Second))
hostOpRate                                     258068                       # Simulator op (including micro ops) rate (op/s) ((Count/Second))
system.clk_domain.clock                           500                       # Clock period in ticks (Tick)
system.clk_domain.voltage_domain.voltage            1                       # Voltage in Volts (Volt)
system.cpu.numCycles                         10744060                       # Number of cpu cycles simulated (Cycle)
system.cpu.numWorkItemsStarted                      0                       # Number of work items this cpu started (Count)
system.cpu.numWorkItemsCompleted                    0                       # Number of work items this cpu completed (Count)
system.cpu.instsAdded                        35862965                       # Number of instructions added to the IQ (excludes non-spec) (Count)
system.cpu.nonSpecInstsAdded                       38                       # Number of non-speculative instructions added to the IQ (Count)
system.cpu.instsIssued                       35720497                       # Number of instructions issued (Count)
system.cpu.squashedInstsIssued                   1339                       # Number of squashed instructions issued (Count)
system.cpu.squashedInstsExamined               526520                       # Number of squashed instructions iterated over during squash; mainly for profiling (Count)
system.cpu.squashedOperandsExamined            611237                       # Number of squashed operands that are examined and possibly removed from graph (Count)
system.cpu.squashedNonSpecRemoved                  20                       # Number of squashed non-spec instructions that were removed (Count)
system.cpu.numIssuedDist::samples            10644557                       # Number of insts issued each cycle (Count)
system.cpu.numIssuedDist::mean               3.355752                       # Number of insts issued each cycle (Count)
system.cpu.numIssuedDist::stdev              1.931949                       # Number of insts issued each cycle (Count)
system.cpu.numIssuedDist::underflows                0      0.00%      0.00% # Number of insts issued each cycle (Count)
system.cpu.numIssuedDist::0                    754953      7.09%      7.09% # Number of insts issued each cycle (Count)
system.cpu.numIssuedDist::1                   1227621     11.53%     18.63% # Number of insts issued each cycle (Count)
system.cpu.numIssuedDist::2                    880512      8.27%     26.90% # Number of insts issued each cycle (Count)
system.cpu.numIssuedDist::3                   3549801     33.35%     60.25% # Number of insts issued each cycle (Count)
system.cpu.numIssuedDist::4                   1767048     16.60%     76.85% # Number of insts issued each cycle (Count)
system.cpu.numIssuedDist::5                    994210      9.34%     86.19% # Number of insts issued each cycle (Count)
system.cpu.numIssuedDist::6                    734121      6.90%     93.08% # Number of insts issued each cycle (Count)
system.cpu.numIssuedDist::7                    251847      2.37%     95.45% # Number of insts issued each cycle (Count)
system.cpu.numIssuedDist::8                    484444      4.55%    100.00% # Number of insts issued each cycle (Count)
system.cpu.numIssuedDist::overflows                 0      0.00%    100.00% # Number of insts issued each cycle (Count)
system.cpu.numIssuedDist::min_value                 0                       # Number of insts issued each cycle (Count)
system.cpu.numIssuedDist::max_value                 8                       # Number of insts issued each cycle (Count)
system.cpu.numIssuedDist::total              10644557                       # Number of insts issued each cycle (Count)
system.cpu.statFuBusy::No_OpClass                   0      0.00%      0.00% # attempts to use FU when none available (Count)
system.cpu.statFuBusy::IntAlu                  576896     95.21%     95.21% # attempts to use FU when none available (Count)
system.cpu.statFuBusy::IntMult                      0      0.00%     95.21% # attempts to use FU when none available (Count)
system.cpu.statFuBusy::IntDiv                       0      0.00%     95.21% # attempts to use FU when none available (Count)
system.cpu.statFuBusy::FloatAdd                     0      0.00%     95.21% # attempts to use FU when none available (Count)
system.cpu.statFuBusy::FloatCmp                     0      0.00%     95.21% # attempts to use FU when none available (Count)
system.cpu.statFuBusy::FloatCvt                     0      0.00%     95.21% # attempts to use FU when none available (Count)
system.cpu.statFuBusy::FloatMult                    0      0.00%     95.21% # attempts to use FU when none available (Count)
system.cpu.statFuBusy::FloatMultAcc                 0      0.00%     95.21% # attempts to use FU when none available (Count)
system.cpu.statFuBusy::FloatDiv                     0      0.00%     95.21% # attempts to use FU when none available (Count)
system.cpu.statFuBusy::FloatMisc                    0      0.00%     95.21% # attempts to use FU when none available (Count)
system.cpu.statFuBusy::FloatSqrt                    0      0.00%     95.21% # attempts to use FU when none available (Count)
system.cpu.statFuBusy::SimdAdd                      0      0.00%     95.21% # attempts to use FU when none available (Count)
system.cpu.statFuBusy::SimdAddAcc                   0      0.00%     95.21% # attempts to use FU when none available (Count)
system.cpu.statFuBusy::SimdAlu                   1018      0.17%     95.38% # attempts to use FU when none available (Count)
system.cpu.statFuBusy::SimdCmp                      0      0.00%     95.38% # attempts to use FU when none available (Count)
system.cpu.statFuBusy::SimdCvt                     28      0.00%     95.38% # attempts to use FU when none available (Count)
system.cpu.statFuBusy::SimdMisc                     5      0.00%     95.38% # attempts to use FU when none available (Count)
system.cpu.statFuBusy::SimdMult                     0      0.00%     95.38% # attempts to use FU when none available (Count)
system.cpu.statFuBusy::SimdMultAcc                  0      0.00%     95.38% # attempts to use FU when none available (Count)
system.cpu.statFuBusy::SimdShift                    1      0.00%     95.38% # attempts to use FU when none available (Count)
system.cpu.statFuBusy::SimdShiftAcc                 0      0.00%     95.38% # attempts to use FU when none available (Count)
system.cpu.statFuBusy::SimdDiv                      0      0.00%     95.38% # attempts to use FU when none available (Count)
system.cpu.statFuBusy::SimdSqrt                     0      0.00%     95.38% # attempts to use FU when none available (Count)
system.cpu.statFuBusy::SimdFloatAdd                 0      0.00%     95.38% # attempts to use FU when none available (Count)
system.cpu.statFuBusy::SimdFloatAlu                 0      0.00%     95.38% # attempts to use FU when none available (Count)
system.cpu.statFuBusy::SimdFloatCmp                 0      0.00%     95.38% # attempts to use FU when none available (Count)
system.cpu.statFuBusy::SimdFloatCvt                 0      0.00%     95.38% # attempts to use FU when none available (Count)
system.cpu.statFuBusy::SimdFloatDiv                 0      0.00%     95.38% # attempts to use FU when none available (Count)
system.cpu.statFuBusy::SimdFloatMisc                0      0.00%     95.38% # attempts to use FU when none available (Count)
system.cpu.statFuBusy::SimdFloatMult                0      0.00%     95.38% # attempts to use FU when none available (Count)
system.cpu.statFuBusy::SimdFloatMultAcc             0      0.00%     95.38% # attempts to use FU when none available (Count)
system.cpu.statFuBusy::SimdFloatSqrt                0      0.00%     95.38% # attempts to use FU when none available (Count)
system.cpu.statFuBusy::SimdReduceAdd                0      0.00%     95.38% # attempts to use FU when none available (Count)
system.cpu.statFuBusy::SimdReduceAlu                0      0.00%     95.38% # attempts to use FU when none available (Count)
system.cpu.statFuBusy::SimdReduceCmp                0      0.00%     95.38% # attempts to use FU when none available (Count)
system.cpu.statFuBusy::SimdFloatReduceAdd            0      0.00%     95.38% # attempts to use FU when none available (Count)
system.cpu.statFuBusy::SimdFloatReduceCmp            0      0.00%     95.38% # attempts to use FU when none available (Count)
system.cpu.statFuBusy::SimdAes                      0      0.00%     95.38% # attempts to use FU when none available (Count)
system.cpu.statFuBusy::SimdAesMix                   0      0.00%     95.38% # attempts to use FU when none available (Count)
system.cpu.statFuBusy::SimdSha1Hash                 0      0.00%     95.38% # attempts to use FU when none available (Count)
system.cpu.statFuBusy::SimdSha1Hash2                0      0.00%     95.38% # attempts to use FU when none available (Count)
system.cpu.statFuBusy::SimdSha256Hash               0      0.00%     95.38% # attempts to use FU when none available (Count)
system.cpu.statFuBusy::SimdSha256Hash2              0      0.00%     95.38% # attempts to use FU when none available (Count)
system.cpu.statFuBusy::SimdShaSigma2                0      0.00%     95.38% # attempts to use FU when none available (Count)
system.cpu.statFuBusy::SimdShaSigma3                0      0.00%     95.38% # attempts to use FU when none available (Count)
system.cpu.statFuBusy::SimdPredAlu                  0      0.00%     95.38% # attempts to use FU when none available (Count)
system.cpu.statFuBusy::MemRead                  18687      3.08%     98.47% # attempts to use FU when none available (Count)
system.cpu.statFuBusy::MemWrite                  2414      0.40%     98.86% # attempts to use FU when none available (Count)
system.cpu.statFuBusy::FloatMemRead              1974      0.33%     99.19% # attempts to use FU when none available (Count)
system.cpu.statFuBusy::FloatMemWrite             4907      0.81%    100.00% # attempts to use FU when none available (Count)
system.cpu.statFuBusy::IprAccess                    0      0.00%    100.00% # attempts to use FU when none available (Count)
system.cpu.statFuBusy::InstPrefetch                 0      0.00%    100.00% # attempts to use FU when none available (Count)
system.cpu.statIssuedInstType_0::No_OpClass       594194      1.66%      1.66% # Number of instructions issued per FU type, per thread (Count)
system.cpu.statIssuedInstType_0::IntAlu      20324301     56.90%     58.56% # Number of instructions issued per FU type, per thread (Count)
system.cpu.statIssuedInstType_0::IntMult       517543      1.45%     60.01% # Number of instructions issued per FU type, per thread (Count)
system.cpu.statIssuedInstType_0::IntDiv         54226      0.15%     60.16% # Number of instructions issued per FU type, per thread (Count)
system.cpu.statIssuedInstType_0::FloatAdd      1517338      4.25%     64.41% # Number of instructions issued per FU type, per thread (Count)
system.cpu.statIssuedInstType_0::FloatCmp            0      0.00%     64.41% # Number of instructions issued per FU type, per thread (Count)
system.cpu.statIssuedInstType_0::FloatCvt           32      0.00%     64.41% # Number of instructions issued per FU type, per thread (Count)
system.cpu.statIssuedInstType_0::FloatMult            0      0.00%     64.41% # Number of instructions issued per FU type, per thread (Count)
system.cpu.statIssuedInstType_0::FloatMultAcc            0      0.00%     64.41% # Number of instructions issued per FU type, per thread (Count)
system.cpu.statIssuedInstType_0::FloatDiv            0      0.00%     64.41% # Number of instructions issued per FU type, per thread (Count)
system.cpu.statIssuedInstType_0::FloatMisc            0      0.00%     64.41% # Number of instructions issued per FU type, per thread (Count)
system.cpu.statIssuedInstType_0::FloatSqrt            0      0.00%     64.41% # Number of instructions issued per FU type, per thread (Count)
system.cpu.statIssuedInstType_0::SimdAdd          459      0.00%     64.41% # Number of instructions issued per FU type, per thread (Count)
system.cpu.statIssuedInstType_0::SimdAddAcc            0      0.00%     64.41% # Number of instructions issued per FU type, per thread (Count)
system.cpu.statIssuedInstType_0::SimdAlu        19180      0.05%     64.47% # Number of instructions issued per FU type, per thread (Count)
system.cpu.statIssuedInstType_0::SimdCmp            8      0.00%     64.47% # Number of instructions issued per FU type, per thread (Count)
system.cpu.statIssuedInstType_0::SimdCvt        11124      0.03%     64.50% # Number of instructions issued per FU type, per thread (Count)
system.cpu.statIssuedInstType_0::SimdMisc        25005      0.07%     64.57% # Number of instructions issued per FU type, per thread (Count)
system.cpu.statIssuedInstType_0::SimdMult            0      0.00%     64.57% # Number of instructions issued per FU type, per thread (Count)
system.cpu.statIssuedInstType_0::SimdMultAcc            0      0.00%     64.57% # Number of instructions issued per FU type, per thread (Count)
system.cpu.statIssuedInstType_0::SimdShift          333      0.00%     64.57% # Number of instructions issued per FU type, per thread (Count)
system.cpu.statIssuedInstType_0::SimdShiftAcc            0      0.00%     64.57% # Number of instructions issued per FU type, per thread (Count)
system.cpu.statIssuedInstType_0::SimdDiv            0      0.00%     64.57% # Number of instructions issued per FU type, per thread (Count)
system.cpu.statIssuedInstType_0::SimdSqrt            0      0.00%     64.57% # Number of instructions issued per FU type, per thread (Count)
system.cpu.statIssuedInstType_0::SimdFloatAdd            0      0.00%     64.57% # Number of instructions issued per FU type, per thread (Count)
system.cpu.statIssuedInstType_0::SimdFloatAlu            0      0.00%     64.57% # Number of instructions issued per FU type, per thread (Count)
system.cpu.statIssuedInstType_0::SimdFloatCmp            0      0.00%     64.57% # Number of instructions issued per FU type, per thread (Count)
system.cpu.statIssuedInstType_0::SimdFloatCvt       508515      1.42%     65.99% # Number of instructions issued per FU type, per thread (Count)
system.cpu.statIssuedInstType_0::SimdFloatDiv            0      0.00%     65.99% # Number of instructions issued per FU type, per thread (Count)
system.cpu.statIssuedInstType_0::SimdFloatMisc            0      0.00%     65.99% # Number of instructions issued per FU type, per thread (Count)
system.cpu.statIssuedInstType_0::SimdFloatMult            0      0.00%     65.99% # Number of instructions issued per FU type, per thread (Count)
system.cpu.statIssuedInstType_0::SimdFloatMultAcc            0      0.00%     65.99% # Number of instructions issued per FU type, per thread (Count)
system.cpu.statIssuedInstType_0::SimdFloatSqrt            0      0.00%     65.99% # Number of instructions issued per FU type, per thread (Count)
system.cpu.statIssuedInstType_0::SimdReduceAdd            0      0.00%     65.99% # Number of instructions issued per FU type, per thread (Count)
system.cpu.statIssuedInstType_0::SimdReduceAlu            0      0.00%     65.99% # Number of instructions issued per FU type, per thread (Count)
system.cpu.statIssuedInstType_0::SimdReduceCmp            0      0.00%     65.99% # Number of instructions issued per FU type, per thread (Count)
system.cpu.statIssuedInstType_0::SimdFloatReduceAdd            0      0.00%     65.99% # Number of instructions issued per FU type, per thread (Count)
system.cpu.statIssuedInstType_0::SimdFloatReduceCmp            0      0.00%     65.99% # Number of instructions issued per FU type, per thread (Count)
system.cpu.statIssuedInstType_0::SimdAes            0      0.00%     65.99% # Number of instructions issued per FU type, per thread (Count)
system.cpu.statIssuedInstType_0::SimdAesMix            0      0.00%     65.99% # Number of instructions issued per FU type, per thread (Count)
system.cpu.statIssuedInstType_0::SimdSha1Hash            0      0.00%     65.99% # Number of instructions issued per FU type, per thread (Count)
system.cpu.statIssuedInstType_0::SimdSha1Hash2            0      0.00%     65.99% # Number of instructions issued per FU type, per thread (Count)
system.cpu.statIssuedInstType_0::SimdSha256Hash            0      0.00%     65.99% # Number of instructions issued per FU type, per thread (Count)
system.cpu.statIssuedInstType_0::SimdSha256Hash2            0      0.00%     65.99% # Number of instructions issued per FU type, per thread (Count)
system.cpu.statIssuedInstType_0::SimdShaSigma2            0      0.00%     65.99% # Number of instructions issued per FU type, per thread (Count)
system.cpu.statIssuedInstType_0::SimdShaSigma3            0      0.00%     65.99% # Number of instructions issued per FU type, per thread (Count)
system.cpu.statIssuedInstType_0::SimdPredAlu            0      0.00%     65.99% # Number of instructions issued per FU type, per thread (Count)
system.cpu.statIssuedInstType_0::MemRead      5993750     16.78%     82.77% # Number of instructions issued per FU type, per thread (Count)
system.cpu.statIssuedInstType_0::MemWrite      3074806      8.61%     91.38% # Number of instructions issued per FU type, per thread (Count)
system.cpu.statIssuedInstType_0::FloatMemRead      2047157      5.73%     97.11% # Number of instructions issued per FU type, per thread (Count)
system.cpu.statIssuedInstType_0::FloatMemWrite      1032526      2.89%    100.00% # Number of instructions issued per FU type, per thread (Count)
system.cpu.statIssuedInstType_0::IprAccess            0      0.00%    100.00% # Number of instructions issued per FU type, per thread (Count)
system.cpu.statIssuedInstType_0::InstPrefetch            0      0.00%    100.00% # Number of instructions issued per FU type, per thread (Count)
system.cpu.statIssuedInstType_0::total       35720497                       # Number of instructions issued per FU type, per thread (Count)
system.cpu.issueRate                         3.324674                       # Inst issue rate ((Count/Cycle))
system.cpu.fuBusy                              605930                       # FU busy when requested (Count)
system.cpu.fuBusyRate                        0.016963                       # FU busy rate (busy events/executed inst) ((Count/Count))
system.cpu.intInstQueueReads                 72344832                       # Number of integer instruction queue reads (Count)
system.cpu.intInstQueueWrites                31203570                       # Number of integer instruction queue writes (Count)
system.cpu.intInstQueueWakeupAccesses        30502347                       # Number of integer instruction queue wakeup accesses (Count)
system.cpu.fpInstQueueReads                  10347988                       # Number of floating instruction queue reads (Count)
system.cpu.fpInstQueueWrites                  5186456                       # Number of floating instruction queue writes (Count)
system.cpu.fpInstQueueWakeupAccesses          5160396                       # Number of floating instruction queue wakeup accesses (Count)
system.cpu.vecInstQueueReads                        0                       # Number of vector instruction queue reads (Count)
system.cpu.vecInstQueueWrites                       0                       # Number of vector instruction queue writes (Count)
system.cpu.vecInstQueueWakeupAccesses               0                       # Number of vector instruction queue wakeup accesses (Count)
system.cpu.intAluAccesses                    30554286                       # Number of integer alu accesses (Count)
system.cpu.fpAluAccesses                      5177947                       # Number of floating point alu accesses (Count)
system.cpu.vecAluAccesses                           0                       # Number of vector alu accesses (Count)
system.cpu.numInsts                          35688009                       # Number of executed instructions (Count)
system.cpu.numLoadInsts                       8036480                       # Number of load instructions executed (Count)
system.cpu.numSquashedInsts                     32488                       # Number of squashed instructions skipped in execute (Count)
system.cpu.numSwp                                   0                       # Number of swp insts executed (Count)
system.cpu.numNop                                   0                       # Number of nop insts executed (Count)
system.cpu.numRefs                           12139899                       # Number of memory reference insts executed (Count)
system.cpu.numBranches                        3313126                       # Number of branches executed (Count)
system.cpu.numStoreInsts                      4103419                       # Number of stores executed (Count)
system.cpu.numRate                           3.321650                       # Inst execution rate ((Count/Cycle))
system.cpu.timesIdled                             902                       # Number of times that the entire CPU went into an idle state and unscheduled itself (Count)
system.cpu.idleCycles                           99503                       # Total number of cycles that the CPU has spent unscheduled due to idling (Cycle)
system.cpu.committedInsts                    19928450                       # Number of Instructions Simulated (Count)
system.cpu.committedOps                      35336477                       # Number of Ops (including micro ops) Simulated (Count)
system.cpu.cpi                               0.539132                       # CPI: Cycles Per Instruction ((Cycle/Count))
system.cpu.totalCpi                          0.539132                       # CPI: Total CPI of All Threads ((Cycle/Count))
system.cpu.ipc                               1.854834                       # IPC: Instructions Per Cycle ((Count/Cycle))
system.cpu.totalIpc                          1.854834                       # IPC: Total IPC of All Threads ((Count/Cycle))
system.cpu.intRegfileReads                   55759459                       # Number of integer regfile reads (Count)
system.cpu.intRegfileWrites                  24158411                       # Number of integer regfile writes (Count)
system.cpu.fpRegfileReads                     2181016                       # Number of floating regfile reads (Count)
system.cpu.fpRegfileWrites                    3610988                       # Number of floating regfile writes (Count)
system.cpu.ccRegfileReads                    10404162                       # number of cc regfile reads (Count)
system.cpu.ccRegfileWrites                    5890526                       # number of cc regfile writes (Count)
system.cpu.miscRegfileReads                  18230633                       # number of misc regfile reads (Count)
system.cpu.miscRegfileWrites                       18                       # number of misc regfile writes (Count)
system.cpu.MemDepUnit__0.insertedLoads        8057596                       # Number of loads inserted to the mem dependence unit. (Count)
system.cpu.MemDepUnit__0.insertedStores       4113070                       # Number of stores inserted to the mem dependence unit. (Count)
system.cpu.MemDepUnit__0.conflictingLoads      2573865                       # Number of conflicting loads. (Count)
system.cpu.MemDepUnit__0.conflictingStores       550388                       # Number of conflicting stores. (Count)
system.cpu.MemDepUnit__1.insertedLoads              0                       # Number of loads inserted to the mem dependence unit. (Count)
system.cpu.MemDepUnit__1.insertedStores             0                       # Number of stores inserted to the mem dependence unit. (Count)
system.cpu.MemDepUnit__1.conflictingLoads            0                       # Number of conflicting loads. (Count)
system.cpu.MemDepUnit__1.conflictingStores            0                       # Number of conflicting stores. (Count)
system.cpu.MemDepUnit__2.insertedLoads              0                       # Number of loads inserted to the mem dependence unit. (Count)
system.cpu.MemDepUnit__2.insertedStores             0                       # Number of stores inserted to the mem dependence unit. (Count)
system.cpu.MemDepUnit__2.conflictingLoads            0                       # Number of conflicting loads. (Count)
system.cpu.MemDepUnit__2.conflictingStores            0                       # Number of conflicting stores. (Count)
system.cpu.MemDepUnit__3.insertedLoads              0                       # Number of loads inserted to the mem dependence unit. (Count)
system.cpu.MemDepUnit__3.insertedStores             0                       # Number of stores inserted to the mem dependence unit. (Count)
system.cpu.MemDepUnit__3.conflictingLoads            0                       # Number of conflicting loads. (Count)
system.cpu.MemDepUnit__3.conflictingStores            0                       # Number of conflicting stores. (Count)
system.cpu.branchPred.lookups                 3381403                       # Number of BP lookups (Count)
system.cpu.branchPred.condPredicted           1646127                       # Number of conditional branches predicted (Count)
system.cpu.branchPred.condIncorrect             14896                       # Number of conditional branches incorrect (Count)
system.cpu.branchPred.BTBLookups              1382137                       # Number of BTB lookups (Count)
system.cpu.branchPred.BTBHits                 1377943                       # Number of BTB hits (Count)
system.cpu.branchPred.BTBHitRatio            0.996966                       # BTB Hit Ratio (Ratio)
system.cpu.branchPred.RASUsed                  572636                       # Number of times the RAS was used to get a target. (Count)
system.cpu.branchPred.RASIncorrect                993                       # Number of incorrect RAS predictions. (Count)
system.cpu.branchPred.indirectLookups          531238                       # Number of indirect predictor lookups. (Count)
system.cpu.branchPred.indirectHits             529747                       # Number of indirect target hits. (Count)
system.cpu.branchPred.indirectMisses             1491                       # Number of indirect misses. (Count)
system.cpu.branchPred.indirectMispredicted          314                       # Number of mispredicted indirect branches. (Count)
system.cpu.commit.commitSquashedInsts          494298                       # The number of squashed insts skipped by commit (Count)
system.cpu.commit.commitNonSpecStalls              18                       # The number of times commit has been forced to stall to communicate backwards (Count)
system.cpu.commit.branchMispredicts             13731                       # The number of times a branch was mispredicted (Count)
system.cpu.commit.numCommittedDist::samples     10572924                       # Number of insts commited each cycle (Count)
system.cpu.commit.numCommittedDist::mean     3.342167                       # Number of insts commited each cycle (Count)
system.cpu.commit.numCommittedDist::stdev     3.108366                       # Number of insts commited each cycle (Count)
system.cpu.commit.numCommittedDist::underflows            0      0.00%      0.00% # Number of insts commited each cycle (Count)
system.cpu.commit.numCommittedDist::0         2847625     26.93%     26.93% # Number of insts commited each cycle (Count)
system.cpu.commit.numCommittedDist::1          804245      7.61%     34.54% # Number of insts commited each cycle (Count)
system.cpu.commit.numCommittedDist::2         1840330     17.41%     51.95% # Number of insts commited each cycle (Count)
system.cpu.commit.numCommittedDist::3         1293517     12.23%     64.18% # Number of insts commited each cycle (Count)
system.cpu.commit.numCommittedDist::4          603977      5.71%     69.89% # Number of insts commited each cycle (Count)
system.cpu.commit.numCommittedDist::5           97923      0.93%     70.82% # Number of insts commited each cycle (Count)
system.cpu.commit.numCommittedDist::6           65579      0.62%     71.44% # Number of insts commited each cycle (Count)
system.cpu.commit.numCommittedDist::7          485800      4.59%     76.03% # Number of insts commited each cycle (Count)
system.cpu.commit.numCommittedDist::8         2533928     23.97%    100.00% # Number of insts commited each cycle (Count)
system.cpu.commit.numCommittedDist::overflows            0      0.00%    100.00% # Number of insts commited each cycle (Count)
system.cpu.commit.numCommittedDist::min_value            0                       # Number of insts commited each cycle (Count)
system.cpu.commit.numCommittedDist::max_value            8                       # Number of insts commited each cycle (Count)
system.cpu.commit.numCommittedDist::total     10572924                       # Number of insts commited each cycle (Count)
system.cpu.commit.instsCommitted             19928450                       # Number of instructions committed (Count)
system.cpu.commit.opsCommitted               35336477                       # Number of ops (including micro ops) committed (Count)
system.cpu.commit.memRefs                    12069539                       # Number of memory references committed (Count)
system.cpu.commit.loads                       7978510                       # Number of loads committed (Count)
system.cpu.commit.amos                              0                       # Number of atomic instructions committed (Count)
system.cpu.commit.membars                           0                       # Number of memory barriers committed (Count)
system.cpu.commit.branches                    3283692                       # Number of branches committed (Count)
system.cpu.commit.vectorInstructions                0                       # Number of committed Vector instructions. (Count)
system.cpu.commit.floating                    5154398                       # Number of committed floating point instructions. (Count)
system.cpu.commit.integer                    32657360                       # Number of committed integer instructions. (Count)
system.cpu.commit.functionCalls                563369                       # Number of function calls committed. (Count)
system.cpu.commit.committedInstType_0::No_OpClass       589130      1.67%      1.67% # Class of committed instruction (Count)
system.cpu.commit.committedInstType_0::IntAlu     20030633     56.69%     58.35% # Class of committed instruction (Count)
system.cpu.commit.committedInstType_0::IntMult       516165      1.46%     59.81% # Class of committed instruction (Count)
system.cpu.commit.committedInstType_0::IntDiv        53994      0.15%     59.97% # Class of committed instruction (Count)
system.cpu.commit.committedInstType_0::FloatAdd      1513865      4.28%     64.25% # Class of committed instruction (Count)
system.cpu.commit.committedInstType_0::FloatCmp            0      0.00%     64.25% # Class of committed instruction (Count)
system.cpu.commit.committedInstType_0::FloatCvt           32      0.00%     64.25% # Class of committed instruction (Count)
system.cpu.commit.committedInstType_0::FloatMult            0      0.00%     64.25% # Class of committed instruction (Count)
system.cpu.commit.committedInstType_0::FloatMultAcc            0      0.00%     64.25% # Class of committed instruction (Count)
system.cpu.commit.committedInstType_0::FloatDiv            0      0.00%     64.25% # Class of committed instruction (Count)
system.cpu.commit.committedInstType_0::FloatMisc            0      0.00%     64.25% # Class of committed instruction (Count)
system.cpu.commit.committedInstType_0::FloatSqrt            0      0.00%     64.25% # Class of committed instruction (Count)
system.cpu.commit.committedInstType_0::SimdAdd          326      0.00%     64.25% # Class of committed instruction (Count)
system.cpu.commit.committedInstType_0::SimdAddAcc            0      0.00%     64.25% # Class of committed instruction (Count)
system.cpu.commit.committedInstType_0::SimdAlu        18662      0.05%     64.30% # Class of committed instruction (Count)
system.cpu.commit.committedInstType_0::SimdCmp            6      0.00%     64.30% # Class of committed instruction (Count)
system.cpu.commit.committedInstType_0::SimdCvt        10720      0.03%     64.33% # Class of committed instruction (Count)
system.cpu.commit.committedInstType_0::SimdMisc        24821      0.07%     64.40% # Class of committed instruction (Count)
system.cpu.commit.committedInstType_0::SimdMult            0      0.00%     64.40% # Class of committed instruction (Count)
system.cpu.commit.committedInstType_0::SimdMultAcc            0      0.00%     64.40% # Class of committed instruction (Count)
system.cpu.commit.committedInstType_0::SimdShift           90      0.00%     64.40% # Class of committed instruction (Count)
system.cpu.commit.committedInstType_0::SimdShiftAcc            0      0.00%     64.40% # Class of committed instruction (Count)
system.cpu.commit.committedInstType_0::SimdDiv            0      0.00%     64.40% # Class of committed instruction (Count)
system.cpu.commit.committedInstType_0::SimdSqrt            0      0.00%     64.40% # Class of committed instruction (Count)
system.cpu.commit.committedInstType_0::SimdFloatAdd            0      0.00%     64.40% # Class of committed instruction (Count)
system.cpu.commit.committedInstType_0::SimdFloatAlu            0      0.00%     64.40% # Class of committed instruction (Count)
system.cpu.commit.committedInstType_0::SimdFloatCmp            0      0.00%     64.40% # Class of committed instruction (Count)
system.cpu.commit.committedInstType_0::SimdFloatCvt       508494      1.44%     65.84% # Class of committed instruction (Count)
system.cpu.commit.committedInstType_0::SimdFloatDiv            0      0.00%     65.84% # Class of committed instruction (Count)
system.cpu.commit.committedInstType_0::SimdFloatMisc            0      0.00%     65.84% # Class of committed instruction (Count)
system.cpu.commit.committedInstType_0::SimdFloatMult            0      0.00%     65.84% # Class of committed instruction (Count)
system.cpu.commit.committedInstType_0::SimdFloatMultAcc            0      0.00%     65.84% # Class of committed instruction (Count)
system.cpu.commit.committedInstType_0::SimdFloatSqrt            0      0.00%     65.84% # Class of committed instruction (Count)
system.cpu.commit.committedInstType_0::SimdReduceAdd            0      0.00%     65.84% # Class of committed instruction (Count)
system.cpu.commit.committedInstType_0::SimdReduceAlu            0      0.00%     65.84% # Class of committed instruction (Count)
system.cpu.commit.committedInstType_0::SimdReduceCmp            0      0.00%     65.84% # Class of committed instruction (Count)
system.cpu.commit.committedInstType_0::SimdFloatReduceAdd            0      0.00%     65.84% # Class of committed instruction (Count)
system.cpu.commit.committedInstType_0::SimdFloatReduceCmp            0      0.00%     65.84% # Class of committed instruction (Count)
system.cpu.commit.committedInstType_0::SimdAes            0      0.00%     65.84% # Class of committed instruction (Count)
system.cpu.commit.committedInstType_0::SimdAesMix            0      0.00%     65.84% # Class of committed instruction (Count)
system.cpu.commit.committedInstType_0::SimdSha1Hash            0      0.00%     65.84% # Class of committed instruction (Count)
system.cpu.commit.committedInstType_0::SimdSha1Hash2            0      0.00%     65.84% # Class of committed instruction (Count)
system.cpu.commit.committedInstType_0::SimdSha256Hash            0      0.00%     65.84% # Class of committed instruction (Count)
system.cpu.commit.committedInstType_0::SimdSha256Hash2            0      0.00%     65.84% # Class of committed instruction (Count)
system.cpu.commit.committedInstType_0::SimdShaSigma2            0      0.00%     65.84% # Class of committed instruction (Count)
system.cpu.commit.committedInstType_0::SimdShaSigma3            0      0.00%     65.84% # Class of committed instruction (Count)
system.cpu.commit.committedInstType_0::SimdPredAlu            0      0.00%     65.84% # Class of committed instruction (Count)
system.cpu.commit.committedInstType_0::MemRead      5941599     16.81%     82.66% # Class of committed instruction (Count)
system.cpu.commit.committedInstType_0::MemWrite      3058838      8.66%     91.31% # Class of committed instruction (Count)
system.cpu.commit.committedInstType_0::FloatMemRead      2036911      5.76%     97.08% # Class of committed instruction (Count)
system.cpu.commit.committedInstType_0::FloatMemWrite      1032191      2.92%    100.00% # Class of committed instruction (Count)
system.cpu.commit.committedInstType_0::IprAccess            0      0.00%    100.00% # Class of committed instruction (Count)
system.cpu.commit.committedInstType_0::InstPrefetch            0      0.00%    100.00% # Class of committed instruction (Count)
system.cpu.commit.committedInstType_0::total     35336477                       # Class of committed instruction (Count)
system.cpu.commit.commitEligibleSamples       2533928                       # number cycles where commit BW limit reached (Cycle)
system.cpu.dcache.demandHits::cpu.data        7872410                       # number of demand (read+write) hits (Count)
system.cpu.dcache.demandHits::total           7872410                       # number of demand (read+write) hits (Count)
system.cpu.dcache.overallHits::cpu.data       7872410                       # number of overall hits (Count)
system.cpu.dcache.overallHits::total          7872410                       # number of overall hits (Count)
system.cpu.dcache.demandMisses::cpu.data        29562                       # number of demand (read+write) misses (Count)
system.cpu.dcache.demandMisses::total           29562                       # number of demand (read+write) misses (Count)
system.cpu.dcache.overallMisses::cpu.data        29562                       # number of overall misses (Count)
system.cpu.dcache.overallMisses::total          29562                       # number of overall misses (Count)
system.cpu.dcache.demandMissLatency::cpu.data   1566785499                       # number of demand (read+write) miss ticks (Tick)
system.cpu.dcache.demandMissLatency::total   1566785499                       # number of demand (read+write) miss ticks (Tick)
system.cpu.dcache.overallMissLatency::cpu.data   1566785499                       # number of overall miss ticks (Tick)
system.cpu.dcache.overallMissLatency::total   1566785499                       # number of overall miss ticks (Tick)
system.cpu.dcache.demandAccesses::cpu.data      7901972                       # number of demand (read+write) accesses (Count)
system.cpu.dcache.demandAccesses::total       7901972                       # number of demand (read+write) accesses (Count)
system.cpu.dcache.overallAccesses::cpu.data      7901972                       # number of overall (read+write) accesses (Count)
system.cpu.dcache.overallAccesses::total      7901972                       # number of overall (read+write) accesses (Count)
system.cpu.dcache.demandMissRate::cpu.data     0.003741                       # miss rate for demand accesses (Ratio)
system.cpu.dcache.demandMissRate::total      0.003741                       # miss rate for demand accesses (Ratio)
system.cpu.dcache.overallMissRate::cpu.data     0.003741                       # miss rate for overall accesses (Ratio)
system.cpu.dcache.overallMissRate::total     0.003741                       # miss rate for overall accesses (Ratio)
system.cpu.dcache.demandAvgMissLatency::cpu.data 52999.983053                       # average overall miss latency ((Cycle/Count))
system.cpu.dcache.demandAvgMissLatency::total 52999.983053                       # average overall miss latency ((Cycle/Count))
system.cpu.dcache.overallAvgMissLatency::cpu.data 52999.983053                       # average overall miss latency ((Cycle/Count))
system.cpu.dcache.overallAvgMissLatency::total 52999.983053                       # average overall miss latency ((Cycle/Count))
system.cpu.dcache.blockedCycles::no_mshrs        18112                       # number of cycles access was blocked (Cycle)
system.cpu.dcache.blockedCycles::no_targets            0                       # number of cycles access was blocked (Cycle)
system.cpu.dcache.blockedCauses::no_mshrs          359                       # number of times access was blocked (Count)
system.cpu.dcache.blockedCauses::no_targets            0                       # number of times access was blocked (Count)
system.cpu.dcache.avgBlocked::no_mshrs      50.451253                       # average number of cycles each access was blocked ((Cycle/Count))
system.cpu.dcache.avgBlocked::no_targets          nan                       # average number of cycles each access was blocked ((Cycle/Count))
system.cpu.dcache.writebacks::writebacks         6274                       # number of writebacks (Count)
system.cpu.dcache.writebacks::total              6274                       # number of writebacks (Count)
system.cpu.dcache.demandMshrHits::cpu.data        20552                       # number of demand (read+write) MSHR hits (Count)
system.cpu.dcache.demandMshrHits::total         20552                       # number of demand (read+write) MSHR hits (Count)
system.cpu.dcache.overallMshrHits::cpu.data        20552                       # number of overall MSHR hits (Count)
system.cpu.dcache.overallMshrHits::total        20552                       # number of overall MSHR hits (Count)
system.cpu.dcache.demandMshrMisses::cpu.data         9010                       # number of demand (read+write) MSHR misses (Count)
system.cpu.dcache.demandMshrMisses::total         9010                       # number of demand (read+write) MSHR misses (Count)
system.cpu.dcache.overallMshrMisses::cpu.data         9010                       # number of overall MSHR misses (Count)
system.cpu.dcache.overallMshrMisses::total         9010                       # number of overall MSHR misses (Count)
system.cpu.dcache.demandMshrMissLatency::cpu.data    578357499                       # number of demand (read+write) MSHR miss ticks (Tick)
system.cpu.dcache.demandMshrMissLatency::total    578357499                       # number of demand (read+write) MSHR miss ticks (Tick)
system.cpu.dcache.overallMshrMissLatency::cpu.data    578357499                       # number of overall MSHR miss ticks (Tick)
system.cpu.dcache.overallMshrMissLatency::total    578357499                       # number of overall MSHR miss ticks (Tick)
system.cpu.dcache.demandMshrMissRate::cpu.data     0.001140                       # mshr miss ratio for demand accesses (Ratio)
system.cpu.dcache.demandMshrMissRate::total     0.001140                       # mshr miss ratio for demand accesses (Ratio)
system.cpu.dcache.overallMshrMissRate::cpu.data     0.001140                       # mshr miss ratio for overall accesses (Ratio)
system.cpu.dcache.overallMshrMissRate::total     0.001140                       # mshr miss ratio for overall accesses (Ratio)
system.cpu.dcache.demandAvgMshrMissLatency::cpu.data 64190.621421                       # average overall mshr miss latency ((Cycle/Count))
system.cpu.dcache.demandAvgMshrMissLatency::total 64190.621421                       # average overall mshr miss latency ((Cycle/Count))
system.cpu.dcache.overallAvgMshrMissLatency::cpu.data 64190.621421                       # average overall mshr miss latency ((Cycle/Count))
system.cpu.dcache.overallAvgMshrMissLatency::total 64190.621421                       # average overall mshr miss latency ((Cycle/Count))
system.cpu.dcache.replacements                   8498                       # number of replacements (Count)
system.cpu.dcache.ReadReq.hits::cpu.data      3784074                       # number of ReadReq hits (Count)
system.cpu.dcache.ReadReq.hits::total         3784074                       # number of ReadReq hits (Count)
system.cpu.dcache.ReadReq.misses::cpu.data        26869                       # number of ReadReq misses (Count)
system.cpu.dcache.ReadReq.misses::total         26869                       # number of ReadReq misses (Count)
system.cpu.dcache.ReadReq.missLatency::cpu.data   1432893000                       # number of ReadReq miss ticks (Tick)
system.cpu.dcache.ReadReq.missLatency::total   1432893000                       # number of ReadReq miss ticks (Tick)
system.cpu.dcache.ReadReq.accesses::cpu.data      3810943                       # number of ReadReq accesses(hits+misses) (Count)
system.cpu.dcache.ReadReq.accesses::total      3810943                       # number of ReadReq accesses(hits+misses) (Count)
system.cpu.dcache.ReadReq.missRate::cpu.data     0.007050                       # miss rate for ReadReq accesses (Ratio)
system.cpu.dcache.ReadReq.missRate::total     0.007050                       # miss rate for ReadReq accesses (Ratio)
system.cpu.dcache.ReadReq.avgMissLatency::cpu.data 53328.854814                       # average ReadReq miss latency ((Tick/Count))
system.cpu.dcache.ReadReq.avgMissLatency::total 53328.854814                       # average ReadReq miss latency ((Tick/Count))
system.cpu.dcache.ReadReq.mshrHits::cpu.data        19570                       # number of ReadReq MSHR hits (Count)
system.cpu.dcache.ReadReq.mshrHits::total        19570                       # number of ReadReq MSHR hits (Count)
system.cpu.dcache.ReadReq.mshrMisses::cpu.data         7299                       # number of ReadReq MSHR misses (Count)
system.cpu.dcache.ReadReq.mshrMisses::total         7299                       # number of ReadReq MSHR misses (Count)
system.cpu.dcache.ReadReq.mshrMissLatency::cpu.data    453339500                       # number of ReadReq MSHR miss ticks (Tick)
system.cpu.dcache.ReadReq.mshrMissLatency::total    453339500                       # number of ReadReq MSHR miss ticks (Tick)
system.cpu.dcache.ReadReq.mshrMissRate::cpu.data     0.001915                       # mshr miss rate for ReadReq accesses (Ratio)
system.cpu.dcache.ReadReq.mshrMissRate::total     0.001915                       # mshr miss rate for ReadReq accesses (Ratio)
system.cpu.dcache.ReadReq.avgMshrMissLatency::cpu.data 62109.809563                       # average ReadReq mshr miss latency ((Tick/Count))
system.cpu.dcache.ReadReq.avgMshrMissLatency::total 62109.809563                       # average ReadReq mshr miss latency ((Tick/Count))
system.cpu.dcache.WriteReq.hits::cpu.data      4088336                       # number of WriteReq hits (Count)
system.cpu.dcache.WriteReq.hits::total        4088336                       # number of WriteReq hits (Count)
system.cpu.dcache.WriteReq.misses::cpu.data         2693                       # number of WriteReq misses (Count)
system.cpu.dcache.WriteReq.misses::total         2693                       # number of WriteReq misses (Count)
system.cpu.dcache.WriteReq.missLatency::cpu.data    133892499                       # number of WriteReq miss ticks (Tick)
system.cpu.dcache.WriteReq.missLatency::total    133892499                       # number of WriteReq miss ticks (Tick)
system.cpu.dcache.WriteReq.accesses::cpu.data      4091029                       # number of WriteReq accesses(hits+misses) (Count)
system.cpu.dcache.WriteReq.accesses::total      4091029                       # number of WriteReq accesses(hits+misses) (Count)
system.cpu.dcache.WriteReq.missRate::cpu.data     0.000658                       # miss rate for WriteReq accesses (Ratio)
system.cpu.dcache.WriteReq.missRate::total     0.000658                       # miss rate for WriteReq accesses (Ratio)
system.cpu.dcache.WriteReq.avgMissLatency::cpu.data 49718.714816                       # average WriteReq miss latency ((Tick/Count))
system.cpu.dcache.WriteReq.avgMissLatency::total 49718.714816                       # average WriteReq miss latency ((Tick/Count))
system.cpu.dcache.WriteReq.mshrHits::cpu.data          982                       # number of WriteReq MSHR hits (Count)
system.cpu.dcache.WriteReq.mshrHits::total          982                       # number of WriteReq MSHR hits (Count)
system.cpu.dcache.WriteReq.mshrMisses::cpu.data         1711                       # number of WriteReq MSHR misses (Count)
system.cpu.dcache.WriteReq.mshrMisses::total         1711                       # number of WriteReq MSHR misses (Count)
system.cpu.dcache.WriteReq.mshrMissLatency::cpu.data    125017999                       # number of WriteReq MSHR miss ticks (Tick)
system.cpu.dcache.WriteReq.mshrMissLatency::total    125017999                       # number of WriteReq MSHR miss ticks (Tick)
system.cpu.dcache.WriteReq.mshrMissRate::cpu.data     0.000418                       # mshr miss rate for WriteReq accesses (Ratio)
system.cpu.dcache.WriteReq.mshrMissRate::total     0.000418                       # mshr miss rate for WriteReq accesses (Ratio)
system.cpu.dcache.WriteReq.avgMshrMissLatency::cpu.data 73067.211572                       # average WriteReq mshr miss latency ((Tick/Count))
system.cpu.dcache.WriteReq.avgMshrMissLatency::total 73067.211572                       # average WriteReq mshr miss latency ((Tick/Count))
system.cpu.dcache.power_state.pwrStateResidencyTicks::UNDEFINED   5372029500                       # Cumulative time (in ticks) in various power states (Tick)
system.cpu.dcache.tags.tagsInUse           509.345778                       # Average ticks per tags in use ((Tick/Count))
system.cpu.dcache.tags.totalRefs              7881420                       # Total number of references to valid blocks. (Count)
system.cpu.dcache.tags.sampledRefs               9010                       # Sample count of references to valid blocks. (Count)
system.cpu.dcache.tags.avgRefs             874.741398                       # Average number of references to valid blocks. ((Count/Count))
system.cpu.dcache.tags.warmupTick              168000                       # The tick when the warmup percentage was hit. (Tick)
system.cpu.dcache.tags.occupancies::cpu.data   509.345778                       # Average occupied blocks per tick, per requestor ((Count/Tick))
system.cpu.dcache.tags.avgOccs::cpu.data     0.994816                       # Average percentage of cache occupancy ((Ratio/Tick))
system.cpu.dcache.tags.avgOccs::total        0.994816                       # Average percentage of cache occupancy ((Ratio/Tick))
system.cpu.dcache.tags.occupanciesTaskId::1024          512                       # Occupied blocks per task id (Count)
system.cpu.dcache.tags.ageTaskId_1024::0           47                       # Occupied blocks per task id, per block age (Count)
system.cpu.dcache.tags.ageTaskId_1024::1           13                       # Occupied blocks per task id, per block age (Count)
system.cpu.dcache.tags.ageTaskId_1024::2          452                       # Occupied blocks per task id, per block age (Count)
system.cpu.dcache.tags.ratioOccsTaskId::1024            1                       # Ratio of occupied blocks and all blocks, per task id (Ratio)
system.cpu.dcache.tags.tagAccesses           31616898                       # Number of tag accesses (Count)
system.cpu.dcache.tags.dataAccesses          31616898                       # Number of data accesses (Count)
system.cpu.dcache.tags.power_state.pwrStateResidencyTicks::UNDEFINED   5372029500                       # Cumulative time (in ticks) in various power states (Tick)
system.cpu.decode.idleCycles                  3645679                       # Number of cycles decode is idle (Cycle)
system.cpu.decode.blockedCycles                688272                       # Number of cycles decode is blocked (Cycle)
system.cpu.decode.runCycles                   6211884                       # Number of cycles decode is running (Cycle)
system.cpu.decode.unblockCycles                 83422                       # Number of cycles decode is unblocking (Cycle)
system.cpu.decode.squashCycles                  15300                       # Number of cycles decode is squashing (Cycle)
system.cpu.decode.branchResolved              1374022                       # Number of times decode resolved a branch (Count)
system.cpu.decode.branchMispred                  1617                       # Number of times decode detected a branch misprediction (Count)
system.cpu.decode.decodedInsts               36039936                       # Number of instructions handled by decode (Count)
system.cpu.decode.squashedInsts                  3853                       # Number of squashed instructions handled by decode (Count)
system.cpu.fetch.icacheStallCycles            3709260                       # Number of cycles fetch is stalled on an Icache miss (Cycle)
system.cpu.fetch.insts                       20363490                       # Number of instructions fetch has processed (Count)
system.cpu.fetch.branches                     3381403                       # Number of branches that fetch encountered (Count)
system.cpu.fetch.predictedBranches            2480326                       # Number of branches that fetch has predicted taken (Count)
system.cpu.fetch.cycles                       6914583                       # Number of cycles fetch has run and was not squashing or blocked (Cycle)
system.cpu.fetch.squashCycles                   33812                       # Number of cycles fetch has spent squashing (Cycle)
system.cpu.fetch.miscStallCycles                  468                       # Number of cycles fetch has spent waiting on interrupts, or bad addresses, or out of MSHRs (Cycle)
system.cpu.fetch.pendingTrapStallCycles          3192                       # Number of stall cycles due to pending traps (Cycle)
system.cpu.fetch.pendingQuiesceStallCycles          148                       # Number of stall cycles due to pending quiesce instructions (Cycle)
system.cpu.fetch.cacheLines                   3659944                       # Number of cache lines fetched (Count)
system.cpu.fetch.icacheSquashes                  5293                       # Number of outstanding Icache misses that were squashed (Count)
system.cpu.fetch.nisnDist::samples           10644557                       # Number of instructions fetched each cycle (Total) (Count)
system.cpu.fetch.nisnDist::mean              3.396985                       # Number of instructions fetched each cycle (Total) (Count)
system.cpu.fetch.nisnDist::stdev             3.481313                       # Number of instructions fetched each cycle (Total) (Count)
system.cpu.fetch.nisnDist::underflows               0      0.00%      0.00% # Number of instructions fetched each cycle (Total) (Count)
system.cpu.fetch.nisnDist::0                  4271579     40.13%     40.13% # Number of instructions fetched each cycle (Total) (Count)
system.cpu.fetch.nisnDist::1                  1088201     10.22%     50.35% # Number of instructions fetched each cycle (Total) (Count)
system.cpu.fetch.nisnDist::2                   105331      0.99%     51.34% # Number of instructions fetched each cycle (Total) (Count)
system.cpu.fetch.nisnDist::3                   128719      1.21%     52.55% # Number of instructions fetched each cycle (Total) (Count)
system.cpu.fetch.nisnDist::4                  1095628     10.29%     62.84% # Number of instructions fetched each cycle (Total) (Count)
system.cpu.fetch.nisnDist::5                    96768      0.91%     63.75% # Number of instructions fetched each cycle (Total) (Count)
system.cpu.fetch.nisnDist::6                   584491      5.49%     69.24% # Number of instructions fetched each cycle (Total) (Count)
system.cpu.fetch.nisnDist::7                    89640      0.84%     70.09% # Number of instructions fetched each cycle (Total) (Count)
system.cpu.fetch.nisnDist::8                  3184200     29.91%    100.00% # Number of instructions fetched each cycle (Total) (Count)
system.cpu.fetch.nisnDist::overflows                0      0.00%    100.00% # Number of instructions fetched each cycle (Total) (Count)
system.cpu.fetch.nisnDist::min_value                0                       # Number of instructions fetched each cycle (Total) (Count)
system.cpu.fetch.nisnDist::max_value                8                       # Number of instructions fetched each cycle (Total) (Count)
system.cpu.fetch.nisnDist::total             10644557                       # Number of instructions fetched each cycle (Total) (Count)
system.cpu.fetch.branchRate                  0.314723                       # Number of branch fetches per cycle (Ratio)
system.cpu.fetch.rate                        1.895325                       # Number of inst fetches per cycle ((Count/Cycle))
system.cpu.icache.demandHits::cpu.inst        3658175                       # number of demand (read+write) hits (Count)
system.cpu.icache.demandHits::total           3658175                       # number of demand (read+write) hits (Count)
system.cpu.icache.overallHits::cpu.inst       3658175                       # number of overall hits (Count)
system.cpu.icache.overallHits::total          3658175                       # number of overall hits (Count)
system.cpu.icache.demandMisses::cpu.inst         1769                       # number of demand (read+write) misses (Count)
system.cpu.icache.demandMisses::total            1769                       # number of demand (read+write) misses (Count)
system.cpu.icache.overallMisses::cpu.inst         1769                       # number of overall misses (Count)
system.cpu.icache.overallMisses::total           1769                       # number of overall misses (Count)
system.cpu.icache.demandMissLatency::cpu.inst    128688500                       # number of demand (read+write) miss ticks (Tick)
system.cpu.icache.demandMissLatency::total    128688500                       # number of demand (read+write) miss ticks (Tick)
system.cpu.icache.overallMissLatency::cpu.inst    128688500                       # number of overall miss ticks (Tick)
system.cpu.icache.overallMissLatency::total    128688500                       # number of overall miss ticks (Tick)
system.cpu.icache.demandAccesses::cpu.inst      3659944                       # number of demand (read+write) accesses (Count)
system.cpu.icache.demandAccesses::total       3659944                       # number of demand (read+write) accesses (Count)
system.cpu.icache.overallAccesses::cpu.inst      3659944                       # number of overall (read+write) accesses (Count)
system.cpu.icache.overallAccesses::total      3659944                       # number of overall (read+write) accesses (Count)
system.cpu.icache.demandMissRate::cpu.inst     0.000483                       # miss rate for demand accesses (Ratio)
system.cpu.icache.demandMissRate::total      0.000483                       # miss rate for demand accesses (Ratio)
system.cpu.icache.overallMissRate::cpu.inst     0.000483                       # miss rate for overall accesses (Ratio)
system.cpu.icache.overallMissRate::total     0.000483                       # miss rate for overall accesses (Ratio)
system.cpu.icache.demandAvgMissLatency::cpu.inst 72746.466930                       # average overall miss latency ((Cycle/Count))
system.cpu.icache.demandAvgMissLatency::total 72746.466930                       # average overall miss latency ((Cycle/Count))
system.cpu.icache.overallAvgMissLatency::cpu.inst 72746.466930                       # average overall miss latency ((Cycle/Count))
system.cpu.icache.overallAvgMissLatency::total 72746.466930                       # average overall miss latency ((Cycle/Count))
system.cpu.icache.blockedCycles::no_mshrs          186                       # number of cycles access was blocked (Cycle)
system.cpu.icache.blockedCycles::no_targets            0                       # number of cycles access was blocked (Cycle)
system.cpu.icache.blockedCauses::no_mshrs            3                       # number of times access was blocked (Count)
system.cpu.icache.blockedCauses::no_targets            0                       # number of times access was blocked (Count)
system.cpu.icache.avgBlocked::no_mshrs             62                       # average number of cycles each access was blocked ((Cycle/Count))
system.cpu.icache.avgBlocked::no_targets          nan                       # average number of cycles each access was blocked ((Cycle/Count))
system.cpu.icache.demandMshrHits::cpu.inst          438                       # number of demand (read+write) MSHR hits (Count)
system.cpu.icache.demandMshrHits::total           438                       # number of demand (read+write) MSHR hits (Count)
system.cpu.icache.overallMshrHits::cpu.inst          438                       # number of overall MSHR hits (Count)
system.cpu.icache.overallMshrHits::total          438                       # number of overall MSHR hits (Count)
system.cpu.icache.demandMshrMisses::cpu.inst         1331                       # number of demand (read+write) MSHR misses (Count)
system.cpu.icache.demandMshrMisses::total         1331                       # number of demand (read+write) MSHR misses (Count)
system.cpu.icache.overallMshrMisses::cpu.inst         1331                       # number of overall MSHR misses (Count)
system.cpu.icache.overallMshrMisses::total         1331                       # number of overall MSHR misses (Count)
system.cpu.icache.demandMshrMissLatency::cpu.inst    101101500                       # number of demand (read+write) MSHR miss ticks (Tick)
system.cpu.icache.demandMshrMissLatency::total    101101500                       # number of demand (read+write) MSHR miss ticks (Tick)
system.cpu.icache.overallMshrMissLatency::cpu.inst    101101500                       # number of overall MSHR miss ticks (Tick)
system.cpu.icache.overallMshrMissLatency::total    101101500                       # number of overall MSHR miss ticks (Tick)
system.cpu.icache.demandMshrMissRate::cpu.inst     0.000364                       # mshr miss ratio for demand accesses (Ratio)
system.cpu.icache.demandMshrMissRate::total     0.000364                       # mshr miss ratio for demand accesses (Ratio)
system.cpu.icache.overallMshrMissRate::cpu.inst     0.000364                       # mshr miss ratio for overall accesses (Ratio)
system.cpu.icache.overallMshrMissRate::total     0.000364                       # mshr miss ratio for overall accesses (Ratio)
system.cpu.icache.demandAvgMshrMissLatency::cpu.inst 75959.053343                       # average overall mshr miss latency ((Cycle/Count))
system.cpu.icache.demandAvgMshrMissLatency::total 75959.053343                       # average overall mshr miss latency ((Cycle/Count))
system.cpu.icache.overallAvgMshrMissLatency::cpu.inst 75959.053343                       # average overall mshr miss latency ((Cycle/Count))
system.cpu.icache.overallAvgMshrMissLatency::total 75959.053343                       # average overall mshr miss latency ((Cycle/Count))
system.cpu.icache.replacements                    362                       # number of replacements (Count)
system.cpu.icache.ReadReq.hits::cpu.inst      3658175                       # number of ReadReq hits (Count)
system.cpu.icache.ReadReq.hits::total         3658175                       # number of ReadReq hits (Count)
system.cpu.icache.ReadReq.misses::cpu.inst         1769                       # number of ReadReq misses (Count)
system.cpu.icache.ReadReq.misses::total          1769                       # number of ReadReq misses (Count)
system.cpu.icache.ReadReq.missLatency::cpu.inst    128688500                       # number of ReadReq miss ticks (Tick)
system.cpu.icache.ReadReq.missLatency::total    128688500                       # number of ReadReq miss ticks (Tick)
system.cpu.icache.ReadReq.accesses::cpu.inst      3659944                       # number of ReadReq accesses(hits+misses) (Count)
system.cpu.icache.ReadReq.accesses::total      3659944                       # number of ReadReq accesses(hits+misses) (Count)
system.cpu.icache.ReadReq.missRate::cpu.inst     0.000483                       # miss rate for ReadReq accesses (Ratio)
system.cpu.icache.ReadReq.missRate::total     0.000483                       # miss rate for ReadReq accesses (Ratio)
system.cpu.icache.ReadReq.avgMissLatency::cpu.inst 72746.466930                       # average ReadReq miss latency ((Tick/Count))
system.cpu.icache.ReadReq.avgMissLatency::total 72746.466930                       # average ReadReq miss latency ((Tick/Count))
system.cpu.icache.ReadReq.mshrHits::cpu.inst          438                       # number of ReadReq MSHR hits (Count)
system.cpu.icache.ReadReq.mshrHits::total          438                       # number of ReadReq MSHR hits (Count)
system.cpu.icache.ReadReq.mshrMisses::cpu.inst         1331                       # number of ReadReq MSHR misses (Count)
system.cpu.icache.ReadReq.mshrMisses::total         1331                       # number of ReadReq MSHR misses (Count)
system.cpu.icache.ReadReq.mshrMissLatency::cpu.inst    101101500                       # number of ReadReq MSHR miss ticks (Tick)
system.cpu.icache.ReadReq.mshrMissLatency::total    101101500                       # number of ReadReq MSHR miss ticks (Tick)
system.cpu.icache.ReadReq.mshrMissRate::cpu.inst     0.000364                       # mshr miss rate for ReadReq accesses (Ratio)
system.cpu.icache.ReadReq.mshrMissRate::total     0.000364                       # mshr miss rate for ReadReq accesses (Ratio)
system.cpu.icache.ReadReq.avgMshrMissLatency::cpu.inst 75959.053343                       # average ReadReq mshr miss latency ((Tick/Count))
system.cpu.icache.ReadReq.avgMshrMissLatency::total 75959.053343                       # average ReadReq mshr miss latency ((Tick/Count))
system.cpu.icache.power_state.pwrStateResidencyTicks::UNDEFINED   5372029500                       # Cumulative time (in ticks) in various power states (Tick)
system.cpu.icache.tags.tagsInUse           794.092692                       # Average ticks per tags in use ((Tick/Count))
system.cpu.icache.tags.totalRefs              3659505                       # Total number of references to valid blocks. (Count)
system.cpu.icache.tags.sampledRefs               1330                       # Sample count of references to valid blocks. (Count)
system.cpu.icache.tags.avgRefs            2751.507519                       # Average number of references to valid blocks. ((Count/Count))
system.cpu.icache.tags.warmupTick               82000                       # The tick when the warmup percentage was hit. (Tick)
system.cpu.icache.tags.occupancies::cpu.inst   794.092692                       # Average occupied blocks per tick, per requestor ((Count/Tick))
system.cpu.icache.tags.avgOccs::cpu.inst     0.775481                       # Average percentage of cache occupancy ((Ratio/Tick))
system.cpu.icache.tags.avgOccs::total        0.775481                       # Average percentage of cache occupancy ((Ratio/Tick))
system.cpu.icache.tags.occupanciesTaskId::1024          968                       # Occupied blocks per task id (Count)
system.cpu.icache.tags.ageTaskId_1024::0           89                       # Occupied blocks per task id, per block age (Count)
system.cpu.icache.tags.ageTaskId_1024::2          345                       # Occupied blocks per task id, per block age (Count)
system.cpu.icache.tags.ageTaskId_1024::3          534                       # Occupied blocks per task id, per block age (Count)
system.cpu.icache.tags.ratioOccsTaskId::1024     0.945312                       # Ratio of occupied blocks and all blocks, per task id (Ratio)
system.cpu.icache.tags.tagAccesses           14641106                       # Number of tag accesses (Count)
system.cpu.icache.tags.dataAccesses          14641106                       # Number of data accesses (Count)
system.cpu.icache.tags.power_state.pwrStateResidencyTicks::UNDEFINED   5372029500                       # Cumulative time (in ticks) in various power states (Tick)
system.cpu.iew.idleCycles                           0                       # Number of cycles IEW is idle (Cycle)
system.cpu.iew.squashCycles                     15300                       # Number of cycles IEW is squashing (Cycle)
system.cpu.iew.blockCycles                     250590                       # Number of cycles IEW is blocking (Cycle)
system.cpu.iew.unblockCycles                    10474                       # Number of cycles IEW is unblocking (Cycle)
system.cpu.iew.dispatchedInsts               35863003                       # Number of instructions dispatched to IQ (Count)
system.cpu.iew.dispSquashedInsts                  400                       # Number of squashed instructions skipped by dispatch (Count)
system.cpu.iew.dispLoadInsts                  8057596                       # Number of dispatched load instructions (Count)
system.cpu.iew.dispStoreInsts                 4113070                       # Number of dispatched store instructions (Count)
system.cpu.iew.dispNonSpecInsts                    36                       # Number of dispatched non-speculative instructions (Count)
system.cpu.iew.iqFullEvents                      2679                       # Number of times the IQ has become full, causing a stall (Count)
system.cpu.iew.lsqFullEvents                     7005                       # Number of times the LSQ has become full, causing a stall (Count)
system.cpu.iew.memOrderViolationEvents            520                       # Number of memory order violations (Count)
system.cpu.iew.predictedTakenIncorrect           5130                       # Number of branches that were predicted taken incorrectly (Count)
system.cpu.iew.predictedNotTakenIncorrect         9572                       # Number of branches that were predicted not taken incorrectly (Count)
system.cpu.iew.branchMispredicts                14702                       # Number of branch mispredicts detected at execute (Count)
system.cpu.iew.instsToCommit                 35668958                       # Cumulative count of insts sent to commit (Count)
system.cpu.iew.writebackCount                35662743                       # Cumulative count of insts written-back (Count)
system.cpu.iew.producerInst                  22830170                       # Number of instructions producing a value (Count)
system.cpu.iew.consumerInst                  30369424                       # Number of instructions consuming a value (Count)
system.cpu.iew.wbRate                        3.319299                       # Insts written-back per cycle ((Count/Cycle))
system.cpu.iew.wbFanout                      0.751749                       # Average fanout of values written-back ((Count/Count))
system.cpu.interrupts.clk_domain.clock           8000                       # Clock period in ticks (Tick)
system.cpu.l2cache.demandHits::cpu.inst            11                       # number of demand (read+write) hits (Count)
system.cpu.l2cache.demandHits::cpu.data          1802                       # number of demand (read+write) hits (Count)
system.cpu.l2cache.demandHits::total             1813                       # number of demand (read+write) hits (Count)
system.cpu.l2cache.overallHits::cpu.inst           11                       # number of overall hits (Count)
system.cpu.l2cache.overallHits::cpu.data         1802                       # number of overall hits (Count)
system.cpu.l2cache.overallHits::total            1813                       # number of overall hits (Count)
system.cpu.l2cache.demandMisses::cpu.inst         1320                       # number of demand (read+write) misses (Count)
system.cpu.l2cache.demandMisses::cpu.data         7208                       # number of demand (read+write) misses (Count)
system.cpu.l2cache.demandMisses::total           8528                       # number of demand (read+write) misses (Count)
system.cpu.l2cache.overallMisses::cpu.inst         1320                       # number of overall misses (Count)
system.cpu.l2cache.overallMisses::cpu.data         7208                       # number of overall misses (Count)
system.cpu.l2cache.overallMisses::total          8528                       # number of overall misses (Count)
system.cpu.l2cache.demandMissLatency::cpu.inst     98983000                       # number of demand (read+write) miss ticks (Tick)
system.cpu.l2cache.demandMissLatency::cpu.data    545826000                       # number of demand (read+write) miss ticks (Tick)
system.cpu.l2cache.demandMissLatency::total    644809000                       # number of demand (read+write) miss ticks (Tick)
system.cpu.l2cache.overallMissLatency::cpu.inst     98983000                       # number of overall miss ticks (Tick)
system.cpu.l2cache.overallMissLatency::cpu.data    545826000                       # number of overall miss ticks (Tick)
system.cpu.l2cache.overallMissLatency::total    644809000                       # number of overall miss ticks (Tick)
system.cpu.l2cache.demandAccesses::cpu.inst         1331                       # number of demand (read+write) accesses (Count)
system.cpu.l2cache.demandAccesses::cpu.data         9010                       # number of demand (read+write) accesses (Count)
system.cpu.l2cache.demandAccesses::total        10341                       # number of demand (read+write) accesses (Count)
system.cpu.l2cache.overallAccesses::cpu.inst         1331                       # number of overall (read+write) accesses (Count)
system.cpu.l2cache.overallAccesses::cpu.data         9010                       # number of overall (read+write) accesses (Count)
system.cpu.l2cache.overallAccesses::total        10341                       # number of overall (read+write) accesses (Count)
system.cpu.l2cache.demandMissRate::cpu.inst     0.991736                       # miss rate for demand accesses (Ratio)
system.cpu.l2cache.demandMissRate::cpu.data     0.800000                       # miss rate for demand accesses (Ratio)
system.cpu.l2cache.demandMissRate::total     0.824678                       # miss rate for demand accesses (Ratio)
system.cpu.l2cache.overallMissRate::cpu.inst     0.991736                       # miss rate for overall accesses (Ratio)
system.cpu.l2cache.overallMissRate::cpu.data     0.800000                       # miss rate for overall accesses (Ratio)
system.cpu.l2cache.overallMissRate::total     0.824678                       # miss rate for overall accesses (Ratio)
system.cpu.l2cache.demandAvgMissLatency::cpu.inst 74987.121212                       # average overall miss latency ((Cycle/Count))
system.cpu.l2cache.demandAvgMissLatency::cpu.data 75725.027747                       # average overall miss latency ((Cycle/Count))
system.cpu.l2cache.demandAvgMissLatency::total 75610.811445                       # average overall miss latency ((Cycle/Count))
system.cpu.l2cache.overallAvgMissLatency::cpu.inst 74987.121212                       # average overall miss latency ((Cycle/Count))
system.cpu.l2cache.overallAvgMissLatency::cpu.data 75725.027747                       # average overall miss latency ((Cycle/Count))
system.cpu.l2cache.overallAvgMissLatency::total 75610.811445                       # average overall miss latency ((Cycle/Count))
system.cpu.l2cache.blockedCycles::no_mshrs            0                       # number of cycles access was blocked (Cycle)
system.cpu.l2cache.blockedCycles::no_targets            0                       # number of cycles access was blocked (Cycle)
system.cpu.l2cache.blockedCauses::no_mshrs            0                       # number of times access was blocked (Count)
system.cpu.l2cache.blockedCauses::no_targets            0                       # number of times access was blocked (Count)
system.cpu.l2cache.avgBlocked::no_mshrs           nan                       # average number of cycles each access was blocked ((Cycle/Count))
system.cpu.l2cache.avgBlocked::no_targets          nan                       # average number of cycles each access was blocked ((Cycle/Count))
system.cpu.l2cache.writebacks::writebacks         4220                       # number of writebacks (Count)
system.cpu.l2cache.writebacks::total             4220                       # number of writebacks (Count)
system.cpu.l2cache.demandMshrMisses::cpu.inst         1320                       # number of demand (read+write) MSHR misses (Count)
system.cpu.l2cache.demandMshrMisses::cpu.data         7208                       # number of demand (read+write) MSHR misses (Count)
system.cpu.l2cache.demandMshrMisses::total         8528                       # number of demand (read+write) MSHR misses (Count)
system.cpu.l2cache.overallMshrMisses::cpu.inst         1320                       # number of overall MSHR misses (Count)
system.cpu.l2cache.overallMshrMisses::cpu.data         7208                       # number of overall MSHR misses (Count)
system.cpu.l2cache.overallMshrMisses::total         8528                       # number of overall MSHR misses (Count)
system.cpu.l2cache.demandMshrMissLatency::cpu.inst     85793000                       # number of demand (read+write) MSHR miss ticks (Tick)
system.cpu.l2cache.demandMshrMissLatency::cpu.data    473746000                       # number of demand (read+write) MSHR miss ticks (Tick)
system.cpu.l2cache.demandMshrMissLatency::total    559539000                       # number of demand (read+write) MSHR miss ticks (Tick)
system.cpu.l2cache.overallMshrMissLatency::cpu.inst     85793000                       # number of overall MSHR miss ticks (Tick)
system.cpu.l2cache.overallMshrMissLatency::cpu.data    473746000                       # number of overall MSHR miss ticks (Tick)
system.cpu.l2cache.overallMshrMissLatency::total    559539000                       # number of overall MSHR miss ticks (Tick)
system.cpu.l2cache.demandMshrMissRate::cpu.inst     0.991736                       # mshr miss ratio for demand accesses (Ratio)
system.cpu.l2cache.demandMshrMissRate::cpu.data     0.800000                       # mshr miss ratio for demand accesses (Ratio)
system.cpu.l2cache.demandMshrMissRate::total     0.824678                       # mshr miss ratio for demand accesses (Ratio)
[...]
system.mem_ctrl.dram.bytesWritten::total       270080                       # Number of bytes written to this memory (Byte)
system.mem_ctrl.dram.numReads::cpu.inst          1319                       # Number of read requests responded to by this memory (Count)
system.mem_ctrl.dram.numReads::cpu.data          7208                       # Number of read requests responded to by this memory (Count)
system.mem_ctrl.dram.numReads::total             8527                       # Number of read requests responded to by this memory (Count)
system.mem_ctrl.dram.numWrites::writebacks         4220                       # Number of write requests responded to by this memory (Count)
system.mem_ctrl.dram.numWrites::total            4220                       # Number of write requests responded to by this memory (Count)
system.mem_ctrl.dram.bwRead::cpu.inst        15713987                       # Total read bandwidth from this memory ((Byte/Second))
system.mem_ctrl.dram.bwRead::cpu.data        85872946                       # Total read bandwidth from this memory ((Byte/Second))
system.mem_ctrl.dram.bwRead::total          101586933                       # Total read bandwidth from this memory ((Byte/Second))
system.mem_ctrl.dram.bwInstRead::cpu.inst     15713987                       # Instruction read bandwidth from this memory ((Byte/Second))
system.mem_ctrl.dram.bwInstRead::total       15713987                       # Instruction read bandwidth from this memory ((Byte/Second))
system.mem_ctrl.dram.bwWrite::writebacks     50275227                       # Write bandwidth from this memory ((Byte/Second))
system.mem_ctrl.dram.bwWrite::total          50275227                       # Write bandwidth from this memory ((Byte/Second))
system.mem_ctrl.dram.bwTotal::writebacks     50275227                       # Total bandwidth to/from this memory ((Byte/Second))
system.mem_ctrl.dram.bwTotal::cpu.inst       15713987                       # Total bandwidth to/from this memory ((Byte/Second))
system.mem_ctrl.dram.bwTotal::cpu.data       85872946                       # Total bandwidth to/from this memory ((Byte/Second))
system.mem_ctrl.dram.bwTotal::total         151862159                       # Total bandwidth to/from this memory ((Byte/Second))
system.mem_ctrl.dram.readBursts                  8510                       # Number of DRAM read bursts (Count)
system.mem_ctrl.dram.writeBursts                 4188                       # Number of DRAM write bursts (Count)
system.mem_ctrl.dram.perBankRdBursts::0           713                       # Per bank write bursts (Count)
system.mem_ctrl.dram.perBankRdBursts::1           694                       # Per bank write bursts (Count)
system.mem_ctrl.dram.perBankRdBursts::2           944                       # Per bank write bursts (Count)
system.mem_ctrl.dram.perBankRdBursts::3           567                       # Per bank write bursts (Count)
system.mem_ctrl.dram.perBankRdBursts::4           463                       # Per bank write bursts (Count)
system.mem_ctrl.dram.perBankRdBursts::5           379                       # Per bank write bursts (Count)
system.mem_ctrl.dram.perBankRdBursts::6           400                       # Per bank write bursts (Count)
system.mem_ctrl.dram.perBankRdBursts::7           320                       # Per bank write bursts (Count)
system.mem_ctrl.dram.perBankRdBursts::8           348                       # Per bank write bursts (Count)
system.mem_ctrl.dram.perBankRdBursts::9           458                       # Per bank write bursts (Count)
system.mem_ctrl.dram.perBankRdBursts::10          591                       # Per bank write bursts (Count)
system.mem_ctrl.dram.perBankRdBursts::11          505                       # Per bank write bursts (Count)
system.mem_ctrl.dram.perBankRdBursts::12          411                       # Per bank write bursts (Count)
system.mem_ctrl.dram.perBankRdBursts::13          521                       # Per bank write bursts (Count)
system.mem_ctrl.dram.perBankRdBursts::14          534                       # Per bank write bursts (Count)
system.mem_ctrl.dram.perBankRdBursts::15          662                       # Per bank write bursts (Count)
system.mem_ctrl.dram.perBankWrBursts::0           386                       # Per bank write bursts (Count)
system.mem_ctrl.dram.perBankWrBursts::1           356                       # Per bank write bursts (Count)
system.mem_ctrl.dram.perBankWrBursts::2           550                       # Per bank write bursts (Count)
system.mem_ctrl.dram.perBankWrBursts::3           323                       # Per bank write bursts (Count)
system.mem_ctrl.dram.perBankWrBursts::4           141                       # Per bank write bursts (Count)
system.mem_ctrl.dram.perBankWrBursts::5           121                       # Per bank write bursts (Count)
system.mem_ctrl.dram.perBankWrBursts::6           249                       # Per bank write bursts (Count)
system.mem_ctrl.dram.perBankWrBursts::7           128                       # Per bank write bursts (Count)
system.mem_ctrl.dram.perBankWrBursts::8           111                       # Per bank write bursts (Count)
system.mem_ctrl.dram.perBankWrBursts::9           187                       # Per bank write bursts (Count)
system.mem_ctrl.dram.perBankWrBursts::10          247                       # Per bank write bursts (Count)
system.mem_ctrl.dram.perBankWrBursts::11          205                       # Per bank write bursts (Count)
system.mem_ctrl.dram.perBankWrBursts::12          128                       # Per bank write bursts (Count)
system.mem_ctrl.dram.perBankWrBursts::13          292                       # Per bank write bursts (Count)
system.mem_ctrl.dram.perBankWrBursts::14          383                       # Per bank write bursts (Count)
system.mem_ctrl.dram.perBankWrBursts::15          381                       # Per bank write bursts (Count)
system.mem_ctrl.dram.totQLat                 95847500                       # Total ticks spent queuing (Tick)
system.mem_ctrl.dram.totBusLat               42550000                       # Total ticks spent in databus transfers (Tick)
system.mem_ctrl.dram.totMemAccLat           255410000                       # Total ticks spent from burst creation until serviced by the DRAM (Tick)
system.mem_ctrl.dram.avgQLat                 11262.93                       # Average queueing delay per DRAM burst ((Tick/Count))
system.mem_ctrl.dram.avgBusLat                5000.00                       # Average bus latency per DRAM burst ((Tick/Count))
system.mem_ctrl.dram.avgMemAccLat            30012.93                       # Average memory access latency per DRAM burst ((Tick/Count))
system.mem_ctrl.dram.readRowHits                 7014                       # Number of row buffer hits during reads (Count)
system.mem_ctrl.dram.writeRowHits                3678                       # Number of row buffer hits during writes (Count)
system.mem_ctrl.dram.readRowHitRate             82.42                       # Row buffer hit rate for reads (Ratio)
system.mem_ctrl.dram.writeRowHitRate            87.82                       # Row buffer hit rate for writes (Ratio)
system.mem_ctrl.dram.bytesPerActivate::samples         1991                       # Bytes accessed per row activation (Byte)
system.mem_ctrl.dram.bytesPerActivate::mean   405.922652                       # Bytes accessed per row activation (Byte)
system.mem_ctrl.dram.bytesPerActivate::gmean   272.499714                       # Bytes accessed per row activation (Byte)
system.mem_ctrl.dram.bytesPerActivate::stdev   337.896764                       # Bytes accessed per row activation (Byte)
system.mem_ctrl.dram.bytesPerActivate::0-127          362     18.18%     18.18% # Bytes accessed per row activation (Byte)
system.mem_ctrl.dram.bytesPerActivate::128-255          567     28.48%     46.66% # Bytes accessed per row activation (Byte)
system.mem_ctrl.dram.bytesPerActivate::256-383          161      8.09%     54.75% # Bytes accessed per row activation (Byte)
system.mem_ctrl.dram.bytesPerActivate::384-511          279     14.01%     68.76% # Bytes accessed per row activation (Byte)
system.mem_ctrl.dram.bytesPerActivate::512-639          135      6.78%     75.54% # Bytes accessed per row activation (Byte)
system.mem_ctrl.dram.bytesPerActivate::640-767           55      2.76%     78.30% # Bytes accessed per row activation (Byte)
system.mem_ctrl.dram.bytesPerActivate::768-895           65      3.26%     81.57% # Bytes accessed per row activation (Byte)
system.mem_ctrl.dram.bytesPerActivate::896-1023           63      3.16%     84.73% # Bytes accessed per row activation (Byte)
system.mem_ctrl.dram.bytesPerActivate::1024-1151          304     15.27%    100.00% # Bytes accessed per row activation (Byte)
system.mem_ctrl.dram.bytesPerActivate::total         1991                       # Bytes accessed per row activation (Byte)
system.mem_ctrl.dram.bytesRead                 544640                       # Total bytes read (Byte)
system.mem_ctrl.dram.bytesWritten              268032                       # Total bytes written (Byte)
system.mem_ctrl.dram.avgRdBW               101.384402                       # Average DRAM read bandwidth in MiBytes/s ((Byte/Second))
system.mem_ctrl.dram.avgWrBW                49.893993                       # Average DRAM write bandwidth in MiBytes/s ((Byte/Second))
system.mem_ctrl.dram.peakBW                  12800.00                       # Theoretical peak bandwidth in MiByte/s ((Byte/Second))
system.mem_ctrl.dram.busUtil                     1.18                       # Data bus utilization in percentage (Ratio)
system.mem_ctrl.dram.busUtilRead                 0.79                       # Data bus utilization in percentage for reads (Ratio)
system.mem_ctrl.dram.busUtilWrite                0.39                       # Data bus utilization in percentage for writes (Ratio)
system.mem_ctrl.dram.pageHitRate                84.20                       # Row buffer hit rate, read and write combined (Ratio)
system.mem_ctrl.dram.power_state.pwrStateResidencyTicks::UNDEFINED   5372029500                       # Cumulative time (in ticks) in various power states (Tick)
system.mem_ctrl.dram.rank0.actEnergy          7611240                       # Energy for activate commands per rank (pJ) (Joule)
system.mem_ctrl.dram.rank0.preEnergy          4018905                       # Energy for precharge commands per rank (pJ) (Joule)
system.mem_ctrl.dram.rank0.readEnergy        31987200                       # Energy for read commands per rank (pJ) (Joule)
system.mem_ctrl.dram.rank0.writeEnergy       11765880                       # Energy for write commands per rank (pJ) (Joule)
system.mem_ctrl.dram.rank0.refreshEnergy 423486960.000000                       # Energy for refresh commands per rank (pJ) (Joule)
system.mem_ctrl.dram.rank0.actBackEnergy   1051551960                       # Energy for active background per rank (pJ) (Joule)
system.mem_ctrl.dram.rank0.preBackEnergy   1177342080                       # Energy for precharge background per rank (pJ) (Joule)
system.mem_ctrl.dram.rank0.actPowerDownEnergy            0                       # Energy for active power-down per rank (pJ) (Joule)
system.mem_ctrl.dram.rank0.prePowerDownEnergy            0                       # Energy for precharge power-down per rank (pJ) (Joule)
system.mem_ctrl.dram.rank0.selfRefreshEnergy            0                       # Energy for self refresh per rank (pJ) (Joule)
system.mem_ctrl.dram.rank0.totalEnergy     2707764225                       # Total energy per rank (pJ) (Joule)
system.mem_ctrl.dram.rank0.averagePower    504.048651                       # Core power per rank (mW) (Watt)
system.mem_ctrl.dram.rank0.totalIdleTime            0                       # Total Idle time Per DRAM Rank (Tick)
system.mem_ctrl.dram.rank0.pwrStateTime::IDLE   3049267250                       # Time in different power states (Tick)
system.mem_ctrl.dram.rank0.pwrStateTime::REF    179140000                       # Time in different power states (Tick)
system.mem_ctrl.dram.rank0.pwrStateTime::SREF            0                       # Time in different power states (Tick)
system.mem_ctrl.dram.rank0.pwrStateTime::PRE_PDN            0                       # Time in different power states (Tick)
system.mem_ctrl.dram.rank0.pwrStateTime::ACT   2143622250                       # Time in different power states (Tick)
system.mem_ctrl.dram.rank0.pwrStateTime::ACT_PDN            0                       # Time in different power states (Tick)
system.mem_ctrl.dram.rank1.actEnergy          6711600                       # Energy for activate commands per rank (pJ) (Joule)
system.mem_ctrl.dram.rank1.preEnergy          3536940                       # Energy for precharge commands per rank (pJ) (Joule)
system.mem_ctrl.dram.rank1.readEnergy        28774200                       # Energy for read commands per rank (pJ) (Joule)
system.mem_ctrl.dram.rank1.writeEnergy       10095480                       # Energy for write commands per rank (pJ) (Joule)
system.mem_ctrl.dram.rank1.refreshEnergy 423486960.000000                       # Energy for refresh commands per rank (pJ) (Joule)
system.mem_ctrl.dram.rank1.actBackEnergy    851614770                       # Energy for active background per rank (pJ) (Joule)
system.mem_ctrl.dram.rank1.preBackEnergy   1345710240                       # Energy for precharge background per rank (pJ) (Joule)
system.mem_ctrl.dram.rank1.actPowerDownEnergy            0                       # Energy for active power-down per rank (pJ) (Joule)
system.mem_ctrl.dram.rank1.prePowerDownEnergy            0                       # Energy for precharge power-down per rank (pJ) (Joule)
system.mem_ctrl.dram.rank1.selfRefreshEnergy            0                       # Energy for self refresh per rank (pJ) (Joule)
system.mem_ctrl.dram.rank1.totalEnergy     2669930190                       # Total energy per rank (pJ) (Joule)
system.mem_ctrl.dram.rank1.averagePower    497.005869                       # Core power per rank (mW) (Watt)
system.mem_ctrl.dram.rank1.totalIdleTime            0                       # Total Idle time Per DRAM Rank (Tick)
system.mem_ctrl.dram.rank1.pwrStateTime::IDLE   3489200000                       # Time in different power states (Tick)
system.mem_ctrl.dram.rank1.pwrStateTime::REF    179140000                       # Time in different power states (Tick)
system.mem_ctrl.dram.rank1.pwrStateTime::SREF            0                       # Time in different power states (Tick)
system.mem_ctrl.dram.rank1.pwrStateTime::PRE_PDN            0                       # Time in different power states (Tick)
system.mem_ctrl.dram.rank1.pwrStateTime::ACT   1703689500                       # Time in different power states (Tick)
system.mem_ctrl.dram.rank1.pwrStateTime::ACT_PDN            0                       # Time in different power states (Tick)
system.mem_ctrl.power_state.pwrStateResidencyTicks::UNDEFINED   5372029500                       # Cumulative time (in ticks) in various power states (Tick)
system.membus.transDist::ReadResp                6865                       # Transaction distribution (Count)
system.membus.transDist::WritebackDirty          4220                       # Transaction distribution (Count)
system.membus.transDist::CleanEvict              1619                       # Transaction distribution (Count)
system.membus.transDist::ReadExReq               1662                       # Transaction distribution (Count)
system.membus.transDist::ReadExResp              1662                       # Transaction distribution (Count)
system.membus.transDist::ReadSharedReq           6865                       # Transaction distribution (Count)
system.membus.pktCount_system.cpu.l2cache.mem_side_port::system.mem_ctrl.port        22893                       # Packet count per connected requestor and responder (Count)
system.membus.pktCount_system.cpu.l2cache.mem_side_port::total        22893                       # Packet count per connected requestor and responder (Count)
system.membus.pktCount::total                   22893                       # Packet count per connected requestor and responder (Count)
system.membus.pktSize_system.cpu.l2cache.mem_side_port::system.mem_ctrl.port       815808                       # Cumulative packet size per connected requestor and responder (Byte)
system.membus.pktSize_system.cpu.l2cache.mem_side_port::total       815808                       # Cumulative packet size per connected requestor and responder (Byte)
system.membus.pktSize::total                   815808                       # Cumulative packet size per connected requestor and responder (Byte)
system.membus.snoops                                0                       # Total snoops (Count)
system.membus.snoopTraffic                          0                       # Total snoop traffic (Byte)
system.membus.snoopFanout::samples               8527                       # Request fanout histogram (Count)
system.membus.snoopFanout::mean                     0                       # Request fanout histogram (Count)
system.membus.snoopFanout::stdev                    0                       # Request fanout histogram (Count)
system.membus.snoopFanout::underflows               0      0.00%      0.00% # Request fanout histogram (Count)
system.membus.snoopFanout::0                     8527    100.00%    100.00% # Request fanout histogram (Count)
system.membus.snoopFanout::1                        0      0.00%    100.00% # Request fanout histogram (Count)
system.membus.snoopFanout::overflows                0      0.00%    100.00% # Request fanout histogram (Count)
system.membus.snoopFanout::min_value                0                       # Request fanout histogram (Count)
system.membus.snoopFanout::max_value                0                       # Request fanout histogram (Count)
system.membus.snoopFanout::total                 8527                       # Request fanout histogram (Count)
system.membus.power_state.pwrStateResidencyTicks::UNDEFINED   5372029500                       # Cumulative time (in ticks) in various power states (Tick)
system.membus.reqLayer2.occupancy            15623000                       # Layer occupancy (ticks) (Tick)
system.membus.reqLayer2.utilization               0.0                       # Layer utilization (Ratio)
system.membus.respLayer0.occupancy           22881500                       # Layer occupancy (ticks) (Tick)
system.membus.respLayer0.utilization              0.0                       # Layer utilization (Ratio)
system.membus.snoop_filter.totRequests          14366                       # Total number of requests made to the snoop filter. (Count)
system.membus.snoop_filter.hitSingleRequests         5840                       # Number of requests hitting in the snoop filter with a single holder of the requested data. (Count)
system.membus.snoop_filter.hitMultiRequests            0                       # Number of requests hitting in the snoop filter with multiple (>1) holders of the requested data. (Count)
system.membus.snoop_filter.totSnoops                0                       # Total number of snoops made to the snoop filter. (Count)
system.membus.snoop_filter.hitSingleSnoops            0                       # Number of snoops hitting in the snoop filter with a single holder of the requested data. (Count)
system.membus.snoop_filter.hitMultiSnoops            0                       # Number of snoops hitting in the snoop filter with multiple (>1) holders of the requested data. (Count)
system.workload.inst.arm                            0                       # number of arm instructions executed (Count)
system.workload.inst.quiesce                        0                       # number of quiesce instructions executed (Count)

---------- End Simulation Statistics   ----------
