
---------- Begin Simulation Statistics ----------
simSeconds                                   0.005322                       # Number of seconds simulated (Second)
simTicks                                   5321917500                       # Number of ticks simulated (Tick)
finalTick                                  5321917500                       # Number of ticks from beginning of simulation (restored from checkpoints and never reset) (Tick)
simFreq                                  1000000000000                       # The number of ticks per simulated second ((Tick/Second))
hostSeconds                                    138.68                       # Real time elapsed on the host (Second)
hostTickRate                                 38374283                       # The number of ticks simulated per host second (ticks/s) ((Tick/Second))
hostMemory                                    1199780                       # Number of bytes of host memory used (Byte)
simInsts                                     19928450                       # Number of instructions simulated (Count)
simOps                                       35336477                       # Number of ops (including micro ops) simulated (Count)
hostInstRate                                   143696                       # Simulator instruction rate (inst/s) ((Count/Second))
hostOpRate                                     254797                       # Simulator op (including micro ops) rate (op/s) ((Count/Second))
system.clk_domain.clock                           500                       # Clock period in ticks (Tick)
system.clk_domain.voltage_domain.voltage            1                       # Voltage in Volts (Volt)
system.cpu.numCycles                         10643836                       # Number of cpu cycles simulated (Cycle)
system.cpu.numWorkItemsStarted                      0                       # Number of work items this cpu started (Count)
system.cpu.numWorkItemsCompleted                    0                       # Number of work items this cpu completed (Count)
system.cpu.instsAdded                        35859873                       # Number of instructions added to the IQ (excludes non-spec) (Count)
system.cpu.nonSpecInstsAdded                       37                       # Number of non-speculative instructions added to the IQ (Count)
system.cpu.instsIssued                       35718576                       # Number of instructions issued (Count)
system.cpu.squashedInstsIssued                   1323                       # Number of squashed instructions issued (Count)
system.cpu.squashedInstsExamined               523427                       # Number of squashed instructions iterated over during squash; mainly for profiling (Count)
system.cpu.squashedOperandsExamined            605856                       # Number of squashed operands that are examined and possibly removed from graph (Count)
system.cpu.squashedNonSpecRemoved                  19                       # Number of squashed non-spec instructions that were removed (Count)
system.cpu.numIssuedDist::samples            10545619                       # Number of insts issued each cycle (Count)
system.cpu.numIssuedDist::mean               3.387054                       # Number of insts issued each cycle (Count)
system.cpu.numIssuedDist::stdev              1.913321                       # Number of insts issued each cycle (Count)
system.cpu.numIssuedDist::underflows                0      0.00%      0.00% # Number of insts issued each cycle (Count)
system.cpu.numIssuedDist::0                    655936      6.22%      6.22% # Number of insts issued each cycle (Count)
system.cpu.numIssuedDist::1                   1228015     11.64%     17.86% # Number of insts issued each cycle (Count)
system.cpu.numIssuedDist::2                    880656      8.35%     26.22% # Number of insts issued each cycle (Count)
system.cpu.numIssuedDist::3                   3549792     33.66%     59.88% # Number of insts issued each cycle (Count)
system.cpu.numIssuedDist::4                   1766921     16.76%     76.63% # Number of insts issued each cycle (Count)
system.cpu.numIssuedDist::5                    994418      9.43%     86.06% # Number of insts issued each cycle (Count)
system.cpu.numIssuedDist::6                    734006      6.96%     93.02% # Number of insts issued each cycle (Count)
system.cpu.numIssuedDist::7                    250937      2.38%     95.40% # Number of insts issued each cycle (Count)
system.cpu.numIssuedDist::8                    484938      4.60%    100.00% # Number of insts issued each cycle (Count)
system.cpu.numIssuedDist::overflows                 0      0.00%    100.00% # Number of insts issued each cycle (Count)
system.cpu.numIssuedDist::min_value                 0                       # Number of insts issued each cycle (Count)
system.cpu.numIssuedDist::max_value                 8                       # Number of insts issued each cycle (Count)
system.cpu.numIssuedDist::total              10545619                       # Number of insts issued each cycle (Count)
system.cpu.statFuBusy::No_OpClass                   0      0.00%      0.00% # attempts to use FU when none available (Count)
system.cpu.statFuBusy::IntAlu                  576446     95.21%     95.21% # attempts to use FU when none available (Count)
system.cpu.statFuBusy::IntMult                      0      0.00%     95.21% # attempts to use FU when none available (Count)
system.cpu.statFuBusy::IntDiv                       0      0.00%     95.21% # attempts to use FU when none available (Count)
system.cpu.statFuBusy::FloatAdd                     0      0.00%     95.21% # attempts to use FU when none available (Count)
system.cpu.statFuBusy::FloatCmp                     0      0.00%     95.21% # attempts to use FU when none available (Count)
system.cpu.statFuBusy::FloatCvt                     0      0.00%     95.21% # attempts to use FU when none available (Count)
system.cpu.statFuBusy::FloatMult                    0      0.00%     95.21% # attempts to use FU when none available (Count)
system.cpu.statFuBusy::FloatMultAcc                 0      0.00%     95.21% # attempts to use FU when none available (Count)
system.cpu.statFuBusy::FloatDiv                     0      0.00%     95.21% # attempts to use FU when none available (Count)
system.cpu.statFuBusy::FloatMisc                    0      0.00%     95.21% # attempts to use FU when none available (Count)
system.cpu.statFuBusy::FloatSqrt                    0      0.00%     95.21% # attempts to use FU when none available (Count)
system.cpu.statFuBusy::SimdAdd                      0      0.00%     95.21% # attempts to use FU when none available (Count)
system.cpu.statFuBusy::SimdAddAcc                   0      0.00%     95.21% # attempts to use FU when none available (Count)
system.cpu.statFuBusy::SimdAlu                   1018      0.17%     95.38% # attempts to use FU when none available (Count)
system.cpu.statFuBusy::SimdCmp                      0      0.00%     95.38% # attempts to use FU when none available (Count)
system.cpu.statFuBusy::SimdCvt                     29      0.00%     95.38% # attempts to use FU when none available (Count)
system.cpu.statFuBusy::SimdMisc                     4      0.00%     95.38% # attempts to use FU when none available (Count)
system.cpu.statFuBusy::SimdMult                     0      0.00%     95.38% # attempts to use FU when none available (Count)
system.cpu.statFuBusy::SimdMultAcc                  0      0.00%     95.38% # attempts to use FU when none available (Count)
system.cpu.statFuBusy::SimdShift                    0      0.00%     95.38% # attempts to use FU when none available (Count)
system.cpu.statFuBusy::SimdShiftAcc                 0      0.00%     95.38% # attempts to use FU when none available (Count)
system.cpu.statFuBusy::SimdDiv                      0      0.00%     95.38% # attempts to use FU when none available (Count)
system.cpu.statFuBusy::SimdSqrt                     0      0.00%     95.38% # attempts to use FU when none available (Count)
system.cpu.statFuBusy::SimdFloatAdd                 0      0.00%     95.38% # attempts to use FU when none available (Count)
system.cpu.statFuBusy::SimdFloatAlu                 0      0.00%     95.38% # attempts to use FU when none available (Count)
system.cpu.statFuBusy::SimdFloatCmp                 0      0.00%     95.38% # attempts to use FU when none available (Count)
system.cpu.statFuBusy::SimdFloatCvt                 0      0.00%     95.38% # attempts to use FU when none available (Count)
system.cpu.statFuBusy::SimdFloatDiv                 0      0.00%     95.38% # attempts to use FU when none available (Count)
system.cpu.statFuBusy::SimdFloatMisc                0      0.00%     95.38% # attempts to use FU when none available (Count)
system.cpu.statFuBusy::SimdFloatMult                0      0.00%     95.38% # attempts to use FU when none available (Count)
system.cpu.statFuBusy::SimdFloatMultAcc             0      0.00%     95.38% # attempts to use FU when none available (Count)
system.cpu.statFuBusy::SimdFloatSqrt                0      0.00%     95.38% # attempts to use FU when none available (Count)
system.cpu.statFuBusy::SimdReduceAdd                0      0.00%     95.38% # attempts to use FU when none available (Count)
system.cpu.statFuBusy::SimdReduceAlu                0      0.00%     95.38% # attempts to use FU when none available (Count)
system.cpu.statFuBusy::SimdReduceCmp                0      0.00%     95.38% # attempts to use FU when none available (Count)
system.cpu.statFuBusy::SimdFloatReduceAdd            0      0.00%     95.38% # attempts to use FU when none available (Count)
system.cpu.statFuBusy::SimdFloatReduceCmp            0      0.00%     95.38% # attempts to use FU when none available (Count)
system.cpu.statFuBusy::SimdAes                      0      0.00%     95.38% # attempts to use FU when none available (Count)
system.cpu.statFuBusy::SimdAesMix                   0      0.00%     95.38% # attempts to use FU when none available (Count)
system.cpu.statFuBusy::SimdSha1Hash                 0      0.00%     95.38% # attempts to use FU when none available (Count)
system.cpu.statFuBusy::SimdSha1Hash2                0      0.00%     95.38% # attempts to use FU when none available (Count)
system.cpu.statFuBusy::SimdSha256Hash               0      0.00%     95.38% # attempts to use FU when none available (Count)
system.cpu.statFuBusy::SimdSha256Hash2              0      0.00%     95.38% # attempts to use FU when none available (Count)
system.cpu.statFuBusy::SimdShaSigma2                0      0.00%     95.38% # attempts to use FU when none available (Count)
system.cpu.statFuBusy::SimdShaSigma3                0      0.00%     95.38% # attempts to use FU when none available (Count)
system.cpu.statFuBusy::SimdPredAlu                  0      0.00%     95.38% # attempts to use FU when none available (Count)
system.cpu.statFuBusy::MemRead                  18649      3.08%     98.46% # attempts to use FU when none available (Count)
system.cpu.statFuBusy::MemWrite                  2422      0.40%     98.86% # attempts to use FU when none available (Count)
system.cpu.statFuBusy::FloatMemRead              1974      0.33%     99.19% # attempts to use FU when none available (Count)
system.cpu.statFuBusy::FloatMemWrite             4906      0.81%    100.00% # attempts to use FU when none available (Count)
system.cpu.statFuBusy::IprAccess                    0      0.00%    100.00% # attempts to use FU when none available (Count)
system.cpu.statFuBusy::InstPrefetch                 0      0.00%    100.00% # attempts to use FU when none available (Count)
system.cpu.statIssuedInstType_0::No_OpClass       593977      1.66%      1.66% # Number of instructions issued per FU type, per thread (Count)
system.cpu.statIssuedInstType_0::IntAlu      20322977     56.90%     58.56% # Number of instructions issued per FU type, per thread (Count)
system.cpu.statIssuedInstType_0::IntMult       517543      1.45%     60.01% # Number of instructions issued per FU type, per thread (Count)
system.cpu.statIssuedInstType_0::IntDiv         54226      0.15%     60.16% # Number of instructions issued per FU type, per thread (Count)
system.cpu.statIssuedInstType_0::FloatAdd      1517325      4.25%     64.41% # Number of instructions issued per FU type, per thread (Count)
system.cpu.statIssuedInstType_0::FloatCmp            0      0.00%     64.41% # Number of instructions issued per FU type, per thread (Count)
system.cpu.statIssuedInstType_0::FloatCvt           32      0.00%     64.41% # Number of instructions issued per FU type, per thread (Count)
system.cpu.statIssuedInstType_0::FloatMult            0      0.00%     64.41% # Number of instructions issued per FU type, per thread (Count)
system.cpu.statIssuedInstType_0::FloatMultAcc            0      0.00%     64.41% # Number of instructions issued per FU type, per thread (Count)
system.cpu.statIssuedInstType_0::FloatDiv            0      0.00%     64.41% # Number of instructions issued per FU type, per thread (Count)
system.cpu.statIssuedInstType_0::FloatMisc            0      0.00%     64.41% # Number of instructions issued per FU type, per thread (Count)
system.cpu.statIssuedInstType_0::FloatSqrt            0      0.00%     64.41% # Number of instructions issued per FU type, per thread (Count)
system.cpu.statIssuedInstType_0::SimdAdd          460      0.00%     64.41% # Number of instructions issued per FU type, per thread (Count)
system.cpu.statIssuedInstType_0::SimdAddAcc            0      0.00%     64.41% # Number of instructions issued per FU type, per thread (Count)
system.cpu.statIssuedInstType_0::SimdAlu        19182      0.05%     64.46% # Number of instructions issued per FU type, per thread (Count)
system.cpu.statIssuedInstType_0::SimdCmp            8      0.00%     64.46% # Number of instructions issued per FU type, per thread (Count)
system.cpu.statIssuedInstType_0::SimdCvt        11131      0.03%     64.50% # Number of instructions issued per FU type, per thread (Count)
system.cpu.statIssuedInstType_0::SimdMisc        24991      0.07%     64.57% # Number of instructions issued per FU type, per thread (Count)
system.cpu.statIssuedInstType_0::SimdMult            0      0.00%     64.57% # Number of instructions issued per FU type, per thread (Count)
system.cpu.statIssuedInstType_0::SimdMultAcc            0      0.00%     64.57% # Number of instructions issued per FU type, per thread (Count)
system.cpu.statIssuedInstType_0::SimdShift          333      0.00%     64.57% # Number of instructions issued per FU type, per thread (Count)
system.cpu.statIssuedInstType_0::SimdShiftAcc            0      0.00%     64.57% # Number of instructions issued per FU type, per thread (Count)
system.cpu.statIssuedInstType_0::SimdDiv            0      0.00%     64.57% # Number of instructions issued per FU type, per thread (Count)
system.cpu.statIssuedInstType_0::SimdSqrt            0      0.00%     64.57% # Number of instructions issued per FU type, per thread (Count)
system.cpu.statIssuedInstType_0::SimdFloatAdd            0      0.00%     64.57% # Number of instructions issued per FU type, per thread (Count)
system.cpu.statIssuedInstType_0::SimdFloatAlu            0      0.00%     64.57% # Number of instructions issued per FU type, per thread (Count)
system.cpu.statIssuedInstType_0::SimdFloatCmp            0      0.00%     64.57% # Number of instructions issued per FU type, per thread (Count)
system.cpu.statIssuedInstType_0::SimdFloatCvt       508516      1.42%     65.99% # Number of instructions issued per FU type, per thread (Count)
system.cpu.statIssuedInstType_0::SimdFloatDiv            0      0.00%     65.99% # Number of instructions issued per FU type, per thread (Count)
system.cpu.statIssuedInstType_0::SimdFloatMisc            0      0.00%     65.99% # Number of instructions issued per FU type, per thread (Count)
system.cpu.statIssuedInstType_0::SimdFloatMult            0      0.00%     65.99% # Number of instructions issued per FU type, per thread (Count)
system.cpu.statIssuedInstType_0::SimdFloatMultAcc            0      0.00%     65.99% # Number of instructions issued per FU type, per thread (Count)
system.cpu.statIssuedInstType_0::SimdFloatSqrt            0      0.00%     65.99% # Number of instructions issued per FU type, per thread (Count)
system.cpu.statIssuedInstType_0::SimdReduceAdd            0      0.00%     65.99% # Number of instructions issued per FU type, per thread (Count)
system.cpu.statIssuedInstType_0::SimdReduceAlu            0      0.00%     65.99% # Number of instructions issued per FU type, per thread (Count)
system.cpu.statIssuedInstType_0::SimdReduceCmp            0      0.00%     65.99% # Number of instructions issued per FU type, per thread (Count)
system.cpu.statIssuedInstType_0::SimdFloatReduceAdd            0      0.00%     65.99% # Number of instructions issued per FU type, per thread (Count)
system.cpu.statIssuedInstType_0::SimdFloatReduceCmp            0      0.00%     65.99% # Number of instructions issued per FU type, per thread (Count)
system.cpu.statIssuedInstType_0::SimdAes            0      0.00%     65.99% # Number of instructions issued per FU type, per thread (Count)
system.cpu.statIssuedInstType_0::SimdAesMix            0      0.00%     65.99% # Number of instructions issued per FU type, per thread (Count)
system.cpu.statIssuedInstType_0::SimdSha1Hash            0      0.00%     65.99% # Number of instructions issued per FU type, per thread (Count)
system.cpu.statIssuedInstType_0::SimdSha1Hash2            0      0.00%     65.99% # Number of instructions issued per FU type, per thread (Count)
system.cpu.statIssuedInstType_0::SimdSha256Hash            0      0.00%     65.99% # Number of instructions issued per FU type, per thread (Count)
system.cpu.statIssuedInstType_0::SimdSha256Hash2            0      0.00%     65.99% # Number of instructions issued per FU type, per thread (Count)
system.cpu.statIssuedInstType_0::SimdShaSigma2            0      0.00%     65.99% # Number of instructions issued per FU type, per thread (Count)
system.cpu.statIssuedInstType_0::SimdShaSigma3            0      0.00%     65.99% # Number of instructions issued per FU type, per thread (Count)
system.cpu.statIssuedInstType_0::SimdPredAlu            0      0.00%     65.99% # Number of instructions issued per FU type, per thread (Count)
system.cpu.statIssuedInstType_0::MemRead      5993469     16.78%     82.77% # Number of instructions issued per FU type, per thread (Count)
system.cpu.statIssuedInstType_0::MemWrite      3074739      8.61%     91.38% # Number of instructions issued per FU type, per thread (Count)
system.cpu.statIssuedInstType_0::FloatMemRead      2047173      5.73%     97.11% # Number of instructions issued per FU type, per thread (Count)
system.cpu.statIssuedInstType_0::FloatMemWrite      1032494      2.89%    100.00% # Number of instructions issued per FU type, per thread (Count)
system.cpu.statIssuedInstType_0::IprAccess            0      0.00%    100.00% # Number of instructions issued per FU type, per thread (Count)
system.cpu.statIssuedInstType_0::InstPrefetch            0      0.00%    100.00% # Number of instructions issued per FU type, per thread (Count)
system.cpu.statIssuedInstType_0::total       35718576                       # Number of instructions issued per FU type, per thread (Count)
system.cpu.issueRate                         3.355799                       # Inst issue rate ((Count/Cycle))
system.cpu.fuBusy                              605448                       # FU busy when requested (Count)
system.cpu.fuBusyRate                        0.016951                       # FU busy rate (busy events/executed inst) ((Count/Count))
system.cpu.intInstQueueReads                 72241650                       # Number of integer instruction queue reads (Count)
system.cpu.intInstQueueWrites                31197465                       # Number of integer instruction queue writes (Count)
system.cpu.intInstQueueWakeupAccesses        30500856                       # Number of integer instruction queue wakeup accesses (Count)
system.cpu.fpInstQueueReads                  10347892                       # Number of floating instruction queue reads (Count)
system.cpu.fpInstQueueWrites                  5186374                       # Number of floating instruction queue writes (Count)
system.cpu.fpInstQueueWakeupAccesses          5160343                       # Number of floating instruction queue wakeup accesses (Count)
system.cpu.vecInstQueueReads                        0                       # Number of vector instruction queue reads (Count)
system.cpu.vecInstQueueWrites                       0                       # Number of vector instruction queue writes (Count)
system.cpu.vecInstQueueWakeupAccesses               0                       # Number of vector instruction queue wakeup accesses (Count)
system.cpu.intAluAccesses                    30552149                       # Number of integer alu accesses (Count)
system.cpu.fpAluAccesses                      5177898                       # Number of floating point alu accesses (Count)
system.cpu.vecAluAccesses                           0                       # Number of vector alu accesses (Count)
system.cpu.numInsts                          35686056                       # Number of executed instructions (Count)
system.cpu.numLoadInsts                       8036174                       # Number of load instructions executed (Count)
system.cpu.numSquashedInsts                     32520                       # Number of squashed instructions skipped in execute (Count)
system.cpu.numSwp                                   0                       # Number of swp insts executed (Count)
system.cpu.numNop                                   0                       # Number of nop insts executed (Count)
system.cpu.numRefs                           12139494                       # Number of memory reference insts executed (Count)
system.cpu.numBranches                        3313062                       # Number of branches executed (Count)
system.cpu.numStoreInsts                      4103320                       # Number of stores executed (Count)
system.cpu.numRate                           3.352744                       # Inst execution rate ((Count/Cycle))
system.cpu.timesIdled                             922                       # Number of times that the entire CPU went into an idle state and unscheduled itself (Count)
system.cpu.idleCycles                           98217                       # Total number of cycles that the CPU has spent unscheduled due to idling (Cycle)
system.cpu.committedInsts                    19928450                       # Number of Instructions Simulated (Count)
system.cpu.committedOps                      35336477                       # Number of Ops (including micro ops) Simulated (Count)
system.cpu.cpi                               0.534103                       # CPI: Cycles Per Instruction ((Cycle/Count))
system.cpu.totalCpi                          0.534103                       # CPI: Total CPI of All Threads ((Cycle/Count))
system.cpu.ipc                               1.872300                       # IPC: Instructions Per Cycle ((Count/Cycle))
system.cpu.totalIpc                          1.872300                       # IPC: Total IPC of All Threads ((Count/Cycle))
system.cpu.intRegfileReads                   55757897                       # Number of integer regfile reads (Count)
system.cpu.intRegfileWrites                  24157083                       # Number of integer regfile writes (Count)
system.cpu.fpRegfileReads                     2180970                       # Number of floating regfile reads (Count)
system.cpu.fpRegfileWrites                    3610966                       # Number of floating regfile writes (Count)
system.cpu.ccRegfileReads                    10404038                       # number of cc regfile reads (Count)
system.cpu.ccRegfileWrites                    5890285                       # number of cc regfile writes (Count)
system.cpu.miscRegfileReads                  18229774                       # number of misc regfile reads (Count)
system.cpu.miscRegfileWrites                       18                       # number of misc regfile writes (Count)
system.cpu.MemDepUnit__0.insertedLoads        8057274                       # Number of loads inserted to the mem dependence unit. (Count)
system.cpu.MemDepUnit__0.insertedStores       4112952                       # Number of stores inserted to the mem dependence unit. (Count)
system.cpu.MemDepUnit__0.conflictingLoads      2573037                       # Number of conflicting loads. (Count)
system.cpu.MemDepUnit__0.conflictingStores       584813                       # Number of conflicting stores. (Count)
system.cpu.MemDepUnit__1.insertedLoads              0                       # Number of loads inserted to the mem dependence unit. (Count)
system.cpu.MemDepUnit__1.insertedStores             0                       # Number of stores inserted to the mem dependence unit. (Count)
system.cpu.MemDepUnit__1.conflictingLoads            0                       # Number of conflicting loads. (Count)
system.cpu.MemDepUnit__1.conflictingStores            0                       # Number of conflicting stores. (Count)
system.cpu.MemDepUnit__2.insertedLoads              0                       # Number of loads inserted to the mem dependence unit. (Count)
system.cpu.MemDepUnit__2.insertedStores             0                       # Number of stores inserted to the mem dependence unit. (Count)
system.cpu.MemDepUnit__2.conflictingLoads            0                       # Number of conflicting loads. (Count)
system.cpu.MemDepUnit__2.conflictingStores            0                       # Number of conflicting stores. (Count)
system.cpu.MemDepUnit__3.insertedLoads              0                       # Number of loads inserted to the mem dependence unit. (Count)
system.cpu.MemDepUnit__3.insertedStores             0                       # Number of stores inserted to the mem dependence unit. (Count)
system.cpu.MemDepUnit__3.conflictingLoads            0                       # Number of conflicting loads. (Count)
system.cpu.MemDepUnit__3.conflictingStores            0                       # Number of conflicting stores. (Count)
system.cpu.branchPred.lookups                 3380891                       # Number of BP lookups (Count)
system.cpu.branchPred.condPredicted           1645770                       # Number of conditional branches predicted (Count)
system.cpu.branchPred.condIncorrect             14889                       # Number of conditional branches incorrect (Count)
system.cpu.branchPred.BTBLookups              1381928                       # Number of BTB lookups (Count)
system.cpu.branchPred.BTBHits                 1377757                       # Number of BTB hits (Count)
system.cpu.branchPred.BTBHitRatio            0.996982                       # BTB Hit Ratio (Ratio)
system.cpu.branchPred.RASUsed                  572617                       # Number of times the RAS was used to get a target. (Count)
system.cpu.branchPred.RASIncorrect                993                       # Number of incorrect RAS predictions. (Count)
system.cpu.branchPred.indirectLookups          531194                       # Number of indirect predictor lookups. (Count)
system.cpu.branchPred.indirectHits             529737                       # Number of indirect target hits. (Count)
system.cpu.branchPred.indirectMisses             1457                       # Number of indirect misses. (Count)
system.cpu.branchPred.indirectMispredicted          313                       # Number of mispredicted indirect branches. (Count)
system.cpu.commit.commitSquashedInsts          491188                       # The number of squashed insts skipped by commit (Count)
system.cpu.commit.commitNonSpecStalls              18                       # The number of times commit has been forced to stall to communicate backwards (Count)
system.cpu.commit.branchMispredicts             13566                       # The number of times a branch was mispredicted (Count)
system.cpu.commit.numCommittedDist::samples     10474498                       # Number of insts commited each cycle (Count)
system.cpu.commit.numCommittedDist::mean     3.373572                       # Number of insts commited each cycle (Count)
system.cpu.commit.numCommittedDist::stdev     3.105978                       # Number of insts commited each cycle (Count)
system.cpu.commit.numCommittedDist::underflows            0      0.00%      0.00% # Number of insts commited each cycle (Count)
system.cpu.commit.numCommittedDist::0         2749087     26.25%     26.25% # Number of insts commited each cycle (Count)
system.cpu.commit.numCommittedDist::1          804783      7.68%     33.93% # Number of insts commited each cycle (Count)
system.cpu.commit.numCommittedDist::2         1839749     17.56%     51.49% # Number of insts commited each cycle (Count)
system.cpu.commit.numCommittedDist::3         1293933     12.35%     63.85% # Number of insts commited each cycle (Count)
system.cpu.commit.numCommittedDist::4          603710      5.76%     69.61% # Number of insts commited each cycle (Count)
system.cpu.commit.numCommittedDist::5           97994      0.94%     70.55% # Number of insts commited each cycle (Count)
system.cpu.commit.numCommittedDist::6           65023      0.62%     71.17% # Number of insts commited each cycle (Count)
system.cpu.commit.numCommittedDist::7          486303      4.64%     75.81% # Number of insts commited each cycle (Count)
system.cpu.commit.numCommittedDist::8         2533916     24.19%    100.00% # Number of insts commited each cycle (Count)
system.cpu.commit.numCommittedDist::overflows            0      0.00%    100.00% # Number of insts commited each cycle (Count)
system.cpu.commit.numCommittedDist::min_value            0                       # Number of insts commited each cycle (Count)
system.cpu.commit.numCommittedDist::max_value            8                       # Number of insts commited each cycle (Count)
system.cpu.commit.numCommittedDist::total     10474498                       # Number of insts commited each cycle (Count)
system.cpu.commit.instsCommitted             19928450                       # Number of instructions committed (Count)
system.cpu.commit.opsCommitted               35336477                       # Number of ops (including micro ops) committed (Count)
system.cpu.commit.memRefs                    12069539                       # Number of memory references committed (Count)
system.cpu.commit.loads                       7978510                       # Number of loads committed (Count)
system.cpu.commit.amos                              0                       # Number of atomic instructions committed (Count)
system.cpu.commit.membars                           0                       # Number of memory barriers committed (Count)
system.cpu.commit.branches                    3283692                       # Number of branches committed (Count)
system.cpu.commit.vectorInstructions                0                       # Number of committed Vector instructions. (Count)
system.cpu.commit.floating                    5154398                       # Number of committed floating point instructions. (Count)
system.cpu.commit.integer                    32657360                       # Number of committed integer instructions. (Count)
system.cpu.commit.functionCalls                563369                       # Number of function calls committed. (Count)
system.cpu.commit.committedInstType_0::No_OpClass       589130      1.67%      1.67% # Class of committed instruction (Count)
system.cpu.commit.committedInstType_0::IntAlu     20030633     56.69%     58.35% # Class of committed instruction (Count)
system.cpu.commit.committedInstType_0::IntMult       516165      1.46%     59.81% # Class of committed instruction (Count)
system.cpu.commit.committedInstType_0::IntDiv        53994      0.15%     59.97% # Class of committed instruction (Count)
system.cpu.commit.committedInstType_0::FloatAdd      1513865      4.28%     64.25% # Class of committed instruction (Count)
system.cpu.commit.committedInstType_0::FloatCmp            0      0.00%     64.25% # Class of committed instruction (Count)
system.cpu.commit.committedInstType_0::FloatCvt           32      0.00%     64.25% # Class of committed instruction (Count)
system.cpu.commit.committedInstType_0::FloatMult            0      0.00%     64.25% # Class of committed instruction (Count)
system.cpu.commit.committedInstType_0::FloatMultAcc            0      0.00%     64.25% # Class of committed instruction (Count)
system.cpu.commit.committedInstType_0::FloatDiv            0      0.00%     64.25% # Class of committed instruction (Count)
system.cpu.commit.committedInstType_0::FloatMisc            0      0.00%     64.25% # Class of committed instruction (Count)
system.cpu.commit.committedInstType_0::FloatSqrt            0      0.00%     64.25% # Class of committed instruction (Count)
system.cpu.commit.committedInstType_0::SimdAdd          326      0.00%     64.25% # Class of committed instruction (Count)
system.cpu.commit.committedInstType_0::SimdAddAcc            0      0.00%     64.25% # Class of committed instruction (Count)
system.cpu.commit.committedInstType_0::SimdAlu        18662      0.05%     64.30% # Class of committed instruction (Count)
system.cpu.commit.committedInstType_0::SimdCmp            6      0.00%     64.30% # Class of committed instruction (Count)
system.cpu.commit.committedInstType_0::SimdCvt        10720      0.03%     64.33% # Class of committed instruction (Count)
system.cpu.commit.committedInstType_0::SimdMisc        24821      0.07%     64.40% # Class of committed instruction (Count)
system.cpu.commit.committedInstType_0::SimdMult            0      0.00%     64.40% # Class of committed instruction (Count)
system.cpu.commit.committedInstType_0::SimdMultAcc            0      0.00%     64.40% # Class of committed instruction (Count)
system.cpu.commit.committedInstType_0::SimdShift           90      0.00%     64.40% # Class of committed instruction (Count)
system.cpu.commit.committedInstType_0::SimdShiftAcc            0      0.00%     64.40% # Class of committed instruction (Count)
system.cpu.commit.committedInstType_0::SimdDiv            0      0.00%     64.40% # Class of committed instruction (Count)
system.cpu.commit.committedInstType_0::SimdSqrt            0      0.00%     64.40% # Class of committed instruction (Count)
system.cpu.commit.committedInstType_0::SimdFloatAdd            0      0.00%     64.40% # Class of committed instruction (Count)
system.cpu.commit.committedInstType_0::SimdFloatAlu            0      0.00%     64.40% # Class of committed instruction (Count)
system.cpu.commit.committedInstType_0::SimdFloatCmp            0      0.00%     64.40% # Class of committed instruction (Count)
system.cpu.commit.committedInstType_0::SimdFloatCvt       508494      1.44%     65.84% # Class of committed instruction (Count)
system.cpu.commit.committedInstType_0::SimdFloatDiv            0      0.00%     65.84% # Class of committed instruction (Count)
system.cpu.commit.committedInstType_0::SimdFloatMisc            0      0.00%     65.84% # Class of committed instruction (Count)
system.cpu.commit.committedInstType_0::SimdFloatMult            0      0.00%     65.84% # Class of committed instruction (Count)
system.cpu.commit.committedInstType_0::SimdFloatMultAcc            0      0.00%     65.84% # Class of committed instruction (Count)
system.cpu.commit.committedInstType_0::SimdFloatSqrt            0      0.00%     65.84% # Class of committed instruction (Count)
system.cpu.commit.committedInstType_0::SimdReduceAdd            0      0.00%     65.84% # Class of committed instruction (Count)
system.cpu.commit.committedInstType_0::SimdReduceAlu            0      0.00%     65.84% # Class of committed instruction (Count)
system.cpu.commit.committedInstType_0::SimdReduceCmp            0      0.00%     65.84% # Class of committed instruction (Count)
system.cpu.commit.committedInstType_0::SimdFloatReduceAdd            0      0.00%     65.84% # Class of committed instruction (Count)
system.cpu.commit.committedInstType_0::SimdFloatReduceCmp            0      0.00%     65.84% # Class of committed instruction (Count)
system.cpu.commit.committedInstType_0::SimdAes            0      0.00%     65.84% # Class of committed instruction (Count)
system.cpu.commit.committedInstType_0::SimdAesMix            0      0.00%     65.84% # Class of committed instruction (Count)
system.cpu.commit.committedInstType_0::SimdSha1Hash            0      0.00%     65.84% # Class of committed instruction (Count)
system.cpu.commit.committedInstType_0::SimdSha1Hash2            0      0.00%     65.84% # Class of committed instruction (Count)
system.cpu.commit.committedInstType_0::SimdSha256Hash            0      0.00%     65.84% # Class of committed instruction (Count)
system.cpu.commit.committedInstType_0::SimdSha256Hash2            0      0.00%     65.84% # Class of committed instruction (Count)
system.cpu.commit.committedInstType_0::SimdShaSigma2            0      0.00%     65.84% # Class of committed instruction (Count)
system.cpu.commit.committedInstType_0::SimdShaSigma3            0      0.00%     65.84% # Class of committed instruction (Count)
system.cpu.commit.committedInstType_0::SimdPredAlu            0      0.00%     65.84% # Class of committed instruction (Count)
system.cpu.commit.committedInstType_0::MemRead      5941599     16.81%     82.66% # Class of committed instruction (Count)
system.cpu.commit.committedInstType_0::MemWrite      3058838      8.66%     91.31% # Class of committed instruction (Count)
system.cpu.commit.committedInstType_0::FloatMemRead      2036911      5.76%     97.08% # Class of committed instruction (Count)
system.cpu.commit.committedInstType_0::FloatMemWrite      1032191      2.92%    100.00% # Class of committed instruction (Count)
system.cpu.commit.committedInstType_0::IprAccess            0      0.00%    100.00% # Class of committed instruction (Count)
system.cpu.commit.committedInstType_0::InstPrefetch            0      0.00%    100.00% # Class of committed instruction (Count)
system.cpu.commit.committedInstType_0::total     35336477                       # Class of committed instruction (Count)
system.cpu.commit.commitEligibleSamples       2533916                       # number cycles where commit BW limit reached (Cycle)
system.cpu.dcache.demandHits::cpu.data        7872389                       # number of demand (read+write) hits (Count)
system.cpu.dcache.demandHits::total           7872389                       # number of demand (read+write) hits (Count)
system.cpu.dcache.overallHits::cpu.data       7872389                       # number of overall hits (Count)
system.cpu.dcache.overallHits::total          7872389                       # number of overall hits (Count)
system.cpu.dcache.demandMisses::cpu.data        29418                       # number of demand (read+write) misses (Count)
system.cpu.dcache.demandMisses::total           29418                       # number of demand (read+write) misses (Count)
system.cpu.dcache.overallMisses::cpu.data        29418                       # number of overall misses (Count)
system.cpu.dcache.overallMisses::total          29418                       # number of overall misses (Count)
system.cpu.dcache.demandMissLatency::cpu.data   1220424000                       # number of demand (read+write) miss ticks (Tick)
system.cpu.dcache.demandMissLatency::total   1220424000                       # number of demand (read+write) miss ticks (Tick)
system.cpu.dcache.overallMissLatency::cpu.data   1220424000                       # number of overall miss ticks (Tick)
system.cpu.dcache.overallMissLatency::total   1220424000                       # number of overall miss ticks (Tick)
system.cpu.dcache.demandAccesses::cpu.data      7901807                       # number of demand (read+write) accesses (Count)
system.cpu.dcache.demandAccesses::total       7901807                       # number of demand (read+write) accesses (Count)
system.cpu.dcache.overallAccesses::cpu.data      7901807                       # number of overall (read+write) accesses (Count)
system.cpu.dcache.overallAccesses::total      7901807                       # number of overall (read+write) accesses (Count)
system.cpu.dcache.demandMissRate::cpu.data     0.003723                       # miss rate for demand accesses (Ratio)
system.cpu.dcache.demandMissRate::total      0.003723                       # miss rate for demand accesses (Ratio)
system.cpu.dcache.overallMissRate::cpu.data     0.003723                       # miss rate for overall accesses (Ratio)
system.cpu.dcache.overallMissRate::total     0.003723                       # miss rate for overall accesses (Ratio)
system.cpu.dcache.demandAvgMissLatency::cpu.data 41485.621048                       # average overall miss latency ((Cycle/Count))
system.cpu.dcache.demandAvgMissLatency::total 41485.621048                       # average overall miss latency ((Cycle/Count))
system.cpu.dcache.overallAvgMissLatency::cpu.data 41485.621048                       # average overall miss latency ((Cycle/Count))
system.cpu.dcache.overallAvgMissLatency::total 41485.621048                       # average overall miss latency ((Cycle/Count))
system.cpu.dcache.blockedCycles::no_mshrs        16152                       # number of cycles access was blocked (Cycle)
system.cpu.dcache.blockedCycles::no_targets            0                       # number of cycles access was blocked (Cycle)
system.cpu.dcache.blockedCauses::no_mshrs          334                       # number of times access was blocked (Count)
system.cpu.dcache.blockedCauses::no_targets            0                       # number of times access was blocked (Count)
system.cpu.dcache.avgBlocked::no_mshrs      48.359281                       # average number of cycles each access was blocked ((Cycle/Count))
system.cpu.dcache.avgBlocked::no_targets          nan                       # average number of cycles each access was blocked ((Cycle/Count))
system.cpu.dcache.writebacks::writebacks         6306                       # number of writebacks (Count)
system.cpu.dcache.writebacks::total              6306                       # number of writebacks (Count)
system.cpu.dcache.demandMshrHits::cpu.data        20424                       # number of demand (read+write) MSHR hits (Count)
system.cpu.dcache.demandMshrHits::total         20424                       # number of demand (read+write) MSHR hits (Count)
system.cpu.dcache.overallMshrHits::cpu.data        20424                       # number of overall MSHR hits (Count)
system.cpu.dcache.overallMshrHits::total        20424                       # number of overall MSHR hits (Count)
system.cpu.dcache.demandMshrMisses::cpu.data         8994                       # number of demand (read+write) MSHR misses (Count)
system.cpu.dcache.demandMshrMisses::total         8994                       # number of demand (read+write) MSHR misses (Count)
system.cpu.dcache.overallMshrMisses::cpu.data         8994                       # number of overall MSHR misses (Count)
system.cpu.dcache.overallMshrMisses::total         8994                       # number of overall MSHR misses (Count)
system.cpu.dcache.demandMshrMissLatency::cpu.data    500305500                       # number of demand (read+write) MSHR miss ticks (Tick)
system.cpu.dcache.demandMshrMissLatency::total    500305500                       # number of demand (read+write) MSHR miss ticks (Tick)
system.cpu.dcache.overallMshrMissLatency::cpu.data    500305500                       # number of overall MSHR miss ticks (Tick)
system.cpu.dcache.overallMshrMissLatency::total    500305500                       # number of overall MSHR miss ticks (Tick)
system.cpu.dcache.demandMshrMissRate::cpu.data     0.001138                       # mshr miss ratio for demand accesses (Ratio)
system.cpu.dcache.demandMshrMissRate::total     0.001138                       # mshr miss ratio for demand accesses (Ratio)
system.cpu.dcache.overallMshrMissRate::cpu.data     0.001138                       # mshr miss ratio for overall accesses (Ratio)
system.cpu.dcache.overallMshrMissRate::total     0.001138                       # mshr miss ratio for overall accesses (Ratio)
system.cpu.dcache.demandAvgMshrMissLatency::cpu.data 55626.584390                       # average overall mshr miss latency ((Cycle/Count))
system.cpu.dcache.demandAvgMshrMissLatency::total 55626.584390                       # average overall mshr miss latency ((Cycle/Count))
system.cpu.dcache.overallAvgMshrMissLatency::cpu.data 55626.584390                       # average overall mshr miss latency ((Cycle/Count))
system.cpu.dcache.overallAvgMshrMissLatency::total 55626.584390                       # average overall mshr miss latency ((Cycle/Count))
system.cpu.dcache.replacements                   8482                       # number of replacements (Count)
system.cpu.dcache.ReadReq.hits::cpu.data      3784052                       # number of ReadReq hits (Count)
system.cpu.dcache.ReadReq.hits::total         3784052                       # number of ReadReq hits (Count)
system.cpu.dcache.ReadReq.misses::cpu.data        26726                       # number of ReadReq misses (Count)
system.cpu.dcache.ReadReq.misses::total         26726                       # number of ReadReq misses (Count)
system.cpu.dcache.ReadReq.missLatency::cpu.data   1085426000                       # number of ReadReq miss ticks (Tick)
system.cpu.dcache.ReadReq.missLatency::total   1085426000                       # number of ReadReq miss ticks (Tick)
system.cpu.dcache.ReadReq.accesses::cpu.data      3810778                       # number of ReadReq accesses(hits+misses) (Count)
system.cpu.dcache.ReadReq.accesses::total      3810778                       # number of ReadReq accesses(hits+misses) (Count)
system.cpu.dcache.ReadReq.missRate::cpu.data     0.007013                       # miss rate for ReadReq accesses (Ratio)
system.cpu.dcache.ReadReq.missRate::total     0.007013                       # miss rate for ReadReq accesses (Ratio)
system.cpu.dcache.ReadReq.avgMissLatency::cpu.data 40613.110828                       # average ReadReq miss latency ((Tick/Count))
system.cpu.dcache.ReadReq.avgMissLatency::total 40613.110828                       # average ReadReq miss latency ((Tick/Count))
system.cpu.dcache.ReadReq.mshrHits::cpu.data        19442                       # number of ReadReq MSHR hits (Count)
system.cpu.dcache.ReadReq.mshrHits::total        19442                       # number of ReadReq MSHR hits (Count)
system.cpu.dcache.ReadReq.mshrMisses::cpu.data         7284                       # number of ReadReq MSHR misses (Count)
system.cpu.dcache.ReadReq.mshrMisses::total         7284                       # number of ReadReq MSHR misses (Count)
system.cpu.dcache.ReadReq.mshrMissLatency::cpu.data    373660500                       # number of ReadReq MSHR miss ticks (Tick)
system.cpu.dcache.ReadReq.mshrMissLatency::total    373660500                       # number of ReadReq MSHR miss ticks (Tick)
system.cpu.dcache.ReadReq.mshrMissRate::cpu.data     0.001911                       # mshr miss rate for ReadReq accesses (Ratio)
system.cpu.dcache.ReadReq.mshrMissRate::total     0.001911                       # mshr miss rate for ReadReq accesses (Ratio)
system.cpu.dcache.ReadReq.avgMshrMissLatency::cpu.data 51298.805601                       # average ReadReq mshr miss latency ((Tick/Count))
system.cpu.dcache.ReadReq.avgMshrMissLatency::total 51298.805601                       # average ReadReq mshr miss latency ((Tick/Count))
system.cpu.dcache.WriteReq.hits::cpu.data      4088337                       # number of WriteReq hits (Count)
system.cpu.dcache.WriteReq.hits::total        4088337                       # number of WriteReq hits (Count)
system.cpu.dcache.WriteReq.misses::cpu.data         2692                       # number of WriteReq misses (Count)
system.cpu.dcache.WriteReq.misses::total         2692                       # number of WriteReq misses (Count)
system.cpu.dcache.WriteReq.missLatency::cpu.data    134998000                       # number of WriteReq miss ticks (Tick)
system.cpu.dcache.WriteReq.missLatency::total    134998000                       # number of WriteReq miss ticks (Tick)
system.cpu.dcache.WriteReq.accesses::cpu.data      4091029                       # number of WriteReq accesses(hits+misses) (Count)
system.cpu.dcache.WriteReq.accesses::total      4091029                       # number of WriteReq accesses(hits+misses) (Count)
system.cpu.dcache.WriteReq.missRate::cpu.data     0.000658                       # miss rate for WriteReq accesses (Ratio)
system.cpu.dcache.WriteReq.missRate::total     0.000658                       # miss rate for WriteReq accesses (Ratio)
system.cpu.dcache.WriteReq.avgMissLatency::cpu.data 50147.845468                       # average WriteReq miss latency ((Tick/Count))
system.cpu.dcache.WriteReq.avgMissLatency::total 50147.845468                       # average WriteReq miss latency ((Tick/Count))
system.cpu.dcache.WriteReq.mshrHits::cpu.data          982                       # number of WriteReq MSHR hits (Count)
system.cpu.dcache.WriteReq.mshrHits::total          982                       # number of WriteReq MSHR hits (Count)
system.cpu.dcache.WriteReq.mshrMisses::cpu.data         1710                       # number of WriteReq MSHR misses (Count)
system.cpu.dcache.WriteReq.mshrMisses::total         1710                       # number of WriteReq MSHR misses (Count)
system.cpu.dcache.WriteReq.mshrMissLatency::cpu.data    126645000                       # number of WriteReq MSHR miss ticks (Tick)
system.cpu.dcache.WriteReq.mshrMissLatency::total    126645000                       # number of WriteReq MSHR miss ticks (Tick)
system.cpu.dcache.WriteReq.mshrMissRate::cpu.data     0.000418                       # mshr miss rate for WriteReq accesses (Ratio)
system.cpu.dcache.WriteReq.mshrMissRate::total     0.000418                       # mshr miss rate for WriteReq accesses (Ratio)
system.cpu.dcache.WriteReq.avgMshrMissLatency::cpu.data 74061.403509                       # average WriteReq mshr miss latency ((Tick/Count))
system.cpu.dcache.WriteReq.avgMshrMissLatency::total 74061.403509                       # average WriteReq mshr miss latency ((Tick/Count))
system.cpu.dcache.power_state.pwrStateResidencyTicks::UNDEFINED   5321917500                       # Cumulative time (in ticks) in various power states (Tick)
system.cpu.dcache.tags.tagsInUse           509.355093                       # Average ticks per tags in use ((Tick/Count))
system.cpu.dcache.tags.totalRefs              7881383                       # Total number of references to valid blocks. (Count)
system.cpu.dcache.tags.sampledRefs               8994                       # Sample count of references to valid blocks. (Count)
system.cpu.dcache.tags.avgRefs             876.293418                       # Average number of references to valid blocks. ((Count/Count))
system.cpu.dcache.tags.warmupTick              168000                       # The tick when the warmup percentage was hit. (Tick)
system.cpu.dcache.tags.occupancies::cpu.data   509.355093                       # Average occupied blocks per tick, per requestor ((Count/Tick))
system.cpu.dcache.tags.avgOccs::cpu.data     0.994834                       # Average percentage of cache occupancy ((Ratio/Tick))
system.cpu.dcache.tags.avgOccs::total        0.994834                       # Average percentage of cache occupancy ((Ratio/Tick))
system.cpu.dcache.tags.occupanciesTaskId::1024          512                       # Occupied blocks per task id (Count)
system.cpu.dcache.tags.ageTaskId_1024::0           47                       # Occupied blocks per task id, per block age (Count)
system.cpu.dcache.tags.ageTaskId_1024::1           13                       # Occupied blocks per task id, per block age (Count)
system.cpu.dcache.tags.ageTaskId_1024::2          452                       # Occupied blocks per task id, per block age (Count)
system.cpu.dcache.tags.ratioOccsTaskId::1024            1                       # Ratio of occupied blocks and all blocks, per task id (Ratio)
system.cpu.dcache.tags.tagAccesses           63223450                       # Number of tag accesses (Count)
system.cpu.dcache.tags.dataAccesses          63223450                       # Number of data accesses (Count)
system.cpu.dcache.tags.power_state.pwrStateResidencyTicks::UNDEFINED   5321917500                       # Cumulative time (in ticks) in various power states (Tick)
system.cpu.decode.idleCycles                  3645083                       # Number of cycles decode is idle (Cycle)
system.cpu.decode.blockedCycles                590667                       # Number of cycles decode is blocked (Cycle)
system.cpu.decode.runCycles                   6212139                       # Number of cycles decode is running (Cycle)
system.cpu.decode.unblockCycles                 82596                       # Number of cycles decode is unblocking (Cycle)
system.cpu.decode.squashCycles                  15134                       # Number of cycles decode is squashing (Cycle)
system.cpu.decode.branchResolved              1373876                       # Number of times decode resolved a branch (Count)
system.cpu.decode.branchMispred                  1614                       # Number of times decode detected a branch misprediction (Count)
system.cpu.decode.decodedInsts               36036564                       # Number of instructions handled by decode (Count)
system.cpu.decode.squashedInsts                  3835                       # Number of squashed instructions handled by decode (Count)
system.cpu.fetch.icacheStallCycles            3709321                       # Number of cycles fetch is stalled on an Icache miss (Cycle)
system.cpu.fetch.insts                       20361283                       # Number of instructions fetch has processed (Count)
system.cpu.fetch.branches                     3380891                       # Number of branches that fetch encountered (Count)
system.cpu.fetch.predictedBranches            2480111                       # Number of branches that fetch has predicted taken (Count)
system.cpu.fetch.cycles                       6816955                       # Number of cycles fetch has run and was not squashing or blocked (Cycle)
system.cpu.fetch.squashCycles                   33474                       # Number of cycles fetch has spent squashing (Cycle)
system.cpu.fetch.miscStallCycles                  304                       # Number of cycles fetch has spent waiting on interrupts, or bad addresses, or out of MSHRs (Cycle)
system.cpu.fetch.pendingTrapStallCycles          2156                       # Number of stall cycles due to pending traps (Cycle)
system.cpu.fetch.pendingQuiesceStallCycles          140                       # Number of stall cycles due to pending quiesce instructions (Cycle)
system.cpu.fetch.icacheWaitRetryStallCycles            6                       # Number of stall cycles due to full MSHR (Cycle)
system.cpu.fetch.cacheLines                   3659661                       # Number of cache lines fetched (Count)
system.cpu.fetch.icacheSquashes                  5315                       # Number of outstanding Icache misses that were squashed (Count)
system.cpu.fetch.nisnDist::samples           10545619                       # Number of instructions fetched each cycle (Total) (Count)
system.cpu.fetch.nisnDist::mean              3.428479                       # Number of instructions fetched each cycle (Total) (Count)
system.cpu.fetch.nisnDist::stdev             3.481983                       # Number of instructions fetched each cycle (Total) (Count)
system.cpu.fetch.nisnDist::underflows               0      0.00%      0.00% # Number of instructions fetched each cycle (Total) (Count)
system.cpu.fetch.nisnDist::0                  4173995     39.58%     39.58% # Number of instructions fetched each cycle (Total) (Count)
system.cpu.fetch.nisnDist::1                  1087196     10.31%     49.89% # Number of instructions fetched each cycle (Total) (Count)
system.cpu.fetch.nisnDist::2                   105202      1.00%     50.89% # Number of instructions fetched each cycle (Total) (Count)
system.cpu.fetch.nisnDist::3                   128995      1.22%     52.11% # Number of instructions fetched each cycle (Total) (Count)
system.cpu.fetch.nisnDist::4                  1095641     10.39%     62.50% # Number of instructions fetched each cycle (Total) (Count)
system.cpu.fetch.nisnDist::5                    96686      0.92%     63.42% # Number of instructions fetched each cycle (Total) (Count)
system.cpu.fetch.nisnDist::6                   584406      5.54%     68.96% # Number of instructions fetched each cycle (Total) (Count)
system.cpu.fetch.nisnDist::7                    89563      0.85%     69.81% # Number of instructions fetched each cycle (Total) (Count)
system.cpu.fetch.nisnDist::8                  3183935     30.19%    100.00% # Number of instructions fetched each cycle (Total) (Count)
system.cpu.fetch.nisnDist::overflows                0      0.00%    100.00% # Number of instructions fetched each cycle (Total) (Count)
system.cpu.fetch.nisnDist::min_value                0                       # Number of instructions fetched each cycle (Total) (Count)
system.cpu.fetch.nisnDist::max_value                8                       # Number of instructions fetched each cycle (Total) (Count)
system.cpu.fetch.nisnDist::total             10545619                       # Number of instructions fetched each cycle (Total) (Count)
system.cpu.fetch.branchRate                  0.317638                       # Number of branch fetches per cycle (Ratio)
system.cpu.fetch.rate                        1.912965                       # Number of inst fetches per cycle ((Count/Cycle))
system.cpu.icache.demandHits::cpu.inst        3657860                       # number of demand (read+write) hits (Count)
system.cpu.icache.demandHits::total           3657860                       # number of demand (read+write) hits (Count)
system.cpu.icache.overallHits::cpu.inst       3657860                       # number of overall hits (Count)
system.cpu.icache.overallHits::total          3657860                       # number of overall hits (Count)
system.cpu.icache.demandMisses::cpu.inst         1801                       # number of demand (read+write) misses (Count)
system.cpu.icache.demandMisses::total            1801                       # number of demand (read+write) misses (Count)
system.cpu.icache.overallMisses::cpu.inst         1801                       # number of overall misses (Count)
system.cpu.icache.overallMisses::total           1801                       # number of overall misses (Count)
system.cpu.icache.demandMissLatency::cpu.inst    129091999                       # number of demand (read+write) miss ticks (Tick)
system.cpu.icache.demandMissLatency::total    129091999                       # number of demand (read+write) miss ticks (Tick)
system.cpu.icache.overallMissLatency::cpu.inst    129091999                       # number of overall miss ticks (Tick)
system.cpu.icache.overallMissLatency::total    129091999                       # number of overall miss ticks (Tick)
system.cpu.icache.demandAccesses::cpu.inst      3659661                       # number of demand (read+write) accesses (Count)
system.cpu.icache.demandAccesses::total       3659661                       # number of demand (read+write) accesses (Count)
system.cpu.icache.overallAccesses::cpu.inst      3659661                       # number of overall (read+write) accesses (Count)
system.cpu.icache.overallAccesses::total      3659661                       # number of overall (read+write) accesses (Count)
system.cpu.icache.demandMissRate::cpu.inst     0.000492                       # miss rate for demand accesses (Ratio)
system.cpu.icache.demandMissRate::total      0.000492                       # miss rate for demand accesses (Ratio)
system.cpu.icache.overallMissRate::cpu.inst     0.000492                       # miss rate for overall accesses (Ratio)
system.cpu.icache.overallMissRate::total     0.000492                       # miss rate for overall accesses (Ratio)
system.cpu.icache.demandAvgMissLatency::cpu.inst 71677.956135                       # average overall miss latency ((Cycle/Count))
system.cpu.icache.demandAvgMissLatency::total 71677.956135                       # average overall miss latency ((Cycle/Count))
system.cpu.icache.overallAvgMissLatency::cpu.inst 71677.956135                       # average overall miss latency ((Cycle/Count))
system.cpu.icache.overallAvgMissLatency::total 71677.956135                       # average overall miss latency ((Cycle/Count))
system.cpu.icache.blockedCycles::no_mshrs          135                       # number of cycles access was blocked (Cycle)
system.cpu.icache.blockedCycles::no_targets            0                       # number of cycles access was blocked (Cycle)
system.cpu.icache.blockedCauses::no_mshrs            4                       # number of times access was blocked (Count)
system.cpu.icache.blockedCauses::no_targets            0                       # number of times access was blocked (Count)
system.cpu.icache.avgBlocked::no_mshrs      33.750000                       # average number of cycles each access was blocked ((Cycle/Count))
system.cpu.icache.avgBlocked::no_targets          nan                       # average number of cycles each access was blocked ((Cycle/Count))
system.cpu.icache.demandMshrHits::cpu.inst          437                       # number of demand (read+write) MSHR hits (Count)
system.cpu.icache.demandMshrHits::total           437                       # number of demand (read+write) MSHR hits (Count)
system.cpu.icache.overallMshrHits::cpu.inst          437                       # number of overall MSHR hits (Count)
system.cpu.icache.overallMshrHits::total          437                       # number of overall MSHR hits (Count)
system.cpu.icache.demandMshrMisses::cpu.inst         1364                       # number of demand (read+write) MSHR misses (Count)
system.cpu.icache.demandMshrMisses::total         1364                       # number of demand (read+write) MSHR misses (Count)
system.cpu.icache.overallMshrMisses::cpu.inst         1364                       # number of overall MSHR misses (Count)
system.cpu.icache.overallMshrMisses::total         1364                       # number of overall MSHR misses (Count)
system.cpu.icache.demandMshrMissLatency::cpu.inst    101624999                       # number of demand (read+write) MSHR miss ticks (Tick)
system.cpu.icache.demandMshrMissLatency::total    101624999                       # number of demand (read+write) MSHR miss ticks (Tick)
system.cpu.icache.overallMshrMissLatency::cpu.inst    101624999                       # number of overall MSHR miss ticks (Tick)
system.cpu.icache.overallMshrMissLatency::total    101624999                       # number of overall MSHR miss ticks (Tick)
system.cpu.icache.demandMshrMissRate::cpu.inst     0.000373                       # mshr miss ratio for demand accesses (Ratio)
system.cpu.icache.demandMshrMissRate::total     0.000373                       # mshr miss ratio for demand accesses (Ratio)
system.cpu.icache.overallMshrMissRate::cpu.inst     0.000373                       # mshr miss ratio for overall accesses (Ratio)
system.cpu.icache.overallMshrMissRate::total     0.000373                       # mshr miss ratio for overall accesses (Ratio)
system.cpu.icache.demandAvgMshrMissLatency::cpu.inst 74505.131232                       # average overall mshr miss latency ((Cycle/Count))
system.cpu.icache.demandAvgMshrMissLatency::total 74505.131232                       # average overall mshr miss latency ((Cycle/Count))
system.cpu.icache.overallAvgMshrMissLatency::cpu.inst 74505.131232                       # average overall mshr miss latency ((Cycle/Count))
system.cpu.icache.overallAvgMshrMissLatency::total 74505.131232                       # average overall mshr miss latency ((Cycle/Count))
system.cpu.icache.replacements                    851                       # number of replacements (Count)
system.cpu.icache.ReadReq.hits::cpu.inst      3657860                       # number of ReadReq hits (Count)
system.cpu.icache.ReadReq.hits::total         3657860                       # number of ReadReq hits (Count)
system.cpu.icache.ReadReq.misses::cpu.inst         1801                       # number of ReadReq misses (Count)
system.cpu.icache.ReadReq.misses::total          1801                       # number of ReadReq misses (Count)
system.cpu.icache.ReadReq.missLatency::cpu.inst    129091999                       # number of ReadReq miss ticks (Tick)
system.cpu.icache.ReadReq.missLatency::total    129091999                       # number of ReadReq miss ticks (Tick)
system.cpu.icache.ReadReq.accesses::cpu.inst      3659661                       # number of ReadReq accesses(hits+misses) (Count)
system.cpu.icache.ReadReq.accesses::total      3659661                       # number of ReadReq accesses(hits+misses) (Count)
system.cpu.icache.ReadReq.missRate::cpu.inst     0.000492                       # miss rate for ReadReq accesses (Ratio)
system.cpu.icache.ReadReq.missRate::total     0.000492                       # miss rate for ReadReq accesses (Ratio)
system.cpu.icache.ReadReq.avgMissLatency::cpu.inst 71677.956135                       # average ReadReq miss latency ((Tick/Count))
system.cpu.icache.ReadReq.avgMissLatency::total 71677.956135                       # average ReadReq miss latency ((Tick/Count))
system.cpu.icache.ReadReq.mshrHits::cpu.inst          437                       # number of ReadReq MSHR hits (Count)
system.cpu.icache.ReadReq.mshrHits::total          437                       # number of ReadReq MSHR hits (Count)
system.cpu.icache.ReadReq.mshrMisses::cpu.inst         1364                       # number of ReadReq MSHR misses (Count)
system.cpu.icache.ReadReq.mshrMisses::total         1364                       # number of ReadReq MSHR misses (Count)
system.cpu.icache.ReadReq.mshrMissLatency::cpu.inst    101624999                       # number of ReadReq MSHR miss ticks (Tick)
system.cpu.icache.ReadReq.mshrMissLatency::total    101624999                       # number of ReadReq MSHR miss ticks (Tick)
system.cpu.icache.ReadReq.mshrMissRate::cpu.inst     0.000373                       # mshr miss rate for ReadReq accesses (Ratio)
system.cpu.icache.ReadReq.mshrMissRate::total     0.000373                       # mshr miss rate for ReadReq accesses (Ratio)
system.cpu.icache.ReadReq.avgMshrMissLatency::cpu.inst 74505.131232                       # average ReadReq mshr miss latency ((Tick/Count))
system.cpu.icache.ReadReq.avgMshrMissLatency::total 74505.131232                       # average ReadReq mshr miss latency ((Tick/Count))
system.cpu.icache.power_state.pwrStateResidencyTicks::UNDEFINED   5321917500                       # Cumulative time (in ticks) in various power states (Tick)
system.cpu.icache.tags.tagsInUse           509.240034                       # Average ticks per tags in use ((Tick/Count))
system.cpu.icache.tags.totalRefs              3659223                       # Total number of references to valid blocks. (Count)
system.cpu.icache.tags.sampledRefs               1363                       # Sample count of references to valid blocks. (Count)
system.cpu.icache.tags.avgRefs            2684.683052                       # Average number of references to valid blocks. ((Count/Count))
system.cpu.icache.tags.warmupTick               82000                       # The tick when the warmup percentage was hit. (Tick)
system.cpu.icache.tags.occupancies::cpu.inst   509.240034                       # Average occupied blocks per tick, per requestor ((Count/Tick))
system.cpu.icache.tags.avgOccs::cpu.inst     0.994609                       # Average percentage of cache occupancy ((Ratio/Tick))
system.cpu.icache.tags.avgOccs::total        0.994609                       # Average percentage of cache occupancy ((Ratio/Tick))
system.cpu.icache.tags.occupanciesTaskId::1024          512                       # Occupied blocks per task id (Count)
system.cpu.icache.tags.ageTaskId_1024::0           97                       # Occupied blocks per task id, per block age (Count)
system.cpu.icache.tags.ageTaskId_1024::2          320                       # Occupied blocks per task id, per block age (Count)
system.cpu.icache.tags.ageTaskId_1024::3           95                       # Occupied blocks per task id, per block age (Count)
system.cpu.icache.tags.ratioOccsTaskId::1024            1                       # Ratio of occupied blocks and all blocks, per task id (Ratio)
system.cpu.icache.tags.tagAccesses           29278651                       # Number of tag accesses (Count)
system.cpu.icache.tags.dataAccesses          29278651                       # Number of data accesses (Count)
system.cpu.icache.tags.power_state.pwrStateResidencyTicks::UNDEFINED   5321917500                       # Cumulative time (in ticks) in various power states (Tick)
system.cpu.iew.idleCycles                           0                       # Number of cycles IEW is idle (Cycle)
system.cpu.iew.squashCycles                     15134                       # Number of cycles IEW is squashing (Cycle)
system.cpu.iew.blockCycles                     155660                       # Number of cycles IEW is blocking (Cycle)
system.cpu.iew.unblockCycles                     9736                       # Number of cycles IEW is unblocking (Cycle)
system.cpu.iew.dispatchedInsts               35859910                       # Number of instructions dispatched to IQ (Count)
system.cpu.iew.dispSquashedInsts                  383                       # Number of squashed instructions skipped by dispatch (Count)
system.cpu.iew.dispLoadInsts                  8057274                       # Number of dispatched load instructions (Count)
system.cpu.iew.dispStoreInsts                 4112952                       # Number of dispatched store instructions (Count)
system.cpu.iew.dispNonSpecInsts                    35                       # Number of dispatched non-speculative instructions (Count)
system.cpu.iew.iqFullEvents                      2603                       # Number of times the IQ has become full, causing a stall (Count)
system.cpu.iew.lsqFullEvents                     6694                       # Number of times the LSQ has become full, causing a stall (Count)
system.cpu.iew.memOrderViolationEvents            519                       # Number of memory order violations (Count)
system.cpu.iew.predictedTakenIncorrect           5130                       # Number of branches that were predicted taken incorrectly (Count)
system.cpu.iew.predictedNotTakenIncorrect         9393                       # Number of branches that were predicted not taken incorrectly (Count)
system.cpu.iew.branchMispredicts                14523                       # Number of branch mispredicts detected at execute (Count)
system.cpu.iew.instsToCommit                 35667225                       # Cumulative count of insts sent to commit (Count)
system.cpu.iew.writebackCount                35661199                       # Cumulative count of insts written-back (Count)
system.cpu.iew.producerInst                  22830667                       # Number of instructions producing a value (Count)
system.cpu.iew.consumerInst                  30369552                       # Number of instructions consuming a value (Count)
system.cpu.iew.wbRate                        3.350409                       # Insts written-back per cycle ((Count/Cycle))
system.cpu.iew.wbFanout                      0.751762                       # Average fanout of values written-back ((Count/Count))
system.cpu.interrupts.clk_domain.clock           8000                       # Clock period in ticks (Tick)
system.cpu.l2cache.demandHits::cpu.inst            37                       # number of demand (read+write) hits (Count)
system.cpu.l2cache.demandHits::cpu.data          2965                       # number of demand (read+write) hits (Count)
system.cpu.l2cache.demandHits::total             3002                       # number of demand (read+write) hits (Count)
system.cpu.l2cache.overallHits::cpu.inst           37                       # number of overall hits (Count)
system.cpu.l2cache.overallHits::cpu.data         2965                       # number of overall hits (Count)
system.cpu.l2cache.overallHits::total            3002                       # number of overall hits (Count)
system.cpu.l2cache.demandMisses::cpu.inst         1327                       # number of demand (read+write) misses (Count)
system.cpu.l2cache.demandMisses::cpu.data         6029                       # number of demand (read+write) misses (Count)
system.cpu.l2cache.demandMisses::total           7356                       # number of demand (read+write) misses (Count)
system.cpu.l2cache.overallMisses::cpu.inst         1327                       # number of overall misses (Count)
system.cpu.l2cache.overallMisses::cpu.data         6029                       # number of overall misses (Count)
system.cpu.l2cache.overallMisses::total          7356                       # number of overall misses (Count)
system.cpu.l2cache.demandMissLatency::cpu.inst     99184000                       # number of demand (read+write) miss ticks (Tick)
system.cpu.l2cache.demandMissLatency::cpu.data    455568000                       # number of demand (read+write) miss ticks (Tick)
system.cpu.l2cache.demandMissLatency::total    554752000                       # number of demand (read+write) miss ticks (Tick)
system.cpu.l2cache.overallMissLatency::cpu.inst     99184000                       # number of overall miss ticks (Tick)
system.cpu.l2cache.overallMissLatency::cpu.data    455568000                       # number of overall miss ticks (Tick)
system.cpu.l2cache.overallMissLatency::total    554752000                       # number of overall miss ticks (Tick)
system.cpu.l2cache.demandAccesses::cpu.inst         1364                       # number of demand (read+write) accesses (Count)
system.cpu.l2cache.demandAccesses::cpu.data         8994                       # number of demand (read+write) accesses (Count)
system.cpu.l2cache.demandAccesses::total        10358                       # number of demand (read+write) accesses (Count)
system.cpu.l2cache.overallAccesses::cpu.inst         1364                       # number of overall (read+write) accesses (Count)
system.cpu.l2cache.overallAccesses::cpu.data         8994                       # number of overall (read+write) accesses (Count)
system.cpu.l2cache.overallAccesses::total        10358                       # number of overall (read+write) accesses (Count)
system.cpu.l2cache.demandMissRate::cpu.inst     0.972874                       # miss rate for demand accesses (Ratio)
system.cpu.l2cache.demandMissRate::cpu.data     0.670336                       # miss rate for demand accesses (Ratio)
system.cpu.l2cache.demandMissRate::total     0.710176                       # miss rate for demand accesses (Ratio)
system.cpu.l2cache.overallMissRate::cpu.inst     0.972874                       # miss rate for overall accesses (Ratio)
system.cpu.l2cache.overallMissRate::cpu.data     0.670336                       # miss rate for overall accesses (Ratio)
system.cpu.l2cache.overallMissRate::total     0.710176                       # miss rate for overall accesses (Ratio)
system.cpu.l2cache.demandAvgMissLatency::cpu.inst 74743.029390                       # average overall miss latency ((Cycle/Count))
system.cpu.l2cache.demandAvgMissLatency::cpu.data 75562.779897                       # average overall miss latency ((Cycle/Count))
system.cpu.l2cache.demandAvgMissLatency::total 75414.899402                       # average overall miss latency ((Cycle/Count))
system.cpu.l2cache.overallAvgMissLatency::cpu.inst 74743.029390                       # average overall miss latency ((Cycle/Count))
system.cpu.l2cache.overallAvgMissLatency::cpu.data 75562.779897                       # average overall miss latency ((Cycle/Count))
system.cpu.l2cache.overallAvgMissLatency::total 75414.899402                       # average overall miss latency ((Cycle/Count))
system.cpu.l2cache.blockedCycles::no_mshrs            0                       # number of cycles access was blocked (Cycle)
system.cpu.l2cache.blockedCycles::no_targets            0                       # number of cycles access was blocked (Cycle)
system.cpu.l2cache.blockedCauses::no_mshrs            0                       # number of times access was blocked (Count)
system.cpu.l2cache.blockedCauses::no_targets            0                       # number of times access was blocked (Count)
system.cpu.l2cache.avgBlocked::no_mshrs           nan                       # average number of cycles each access was blocked ((Cycle/Count))
system.cpu.l2cache.avgBlocked::no_targets          nan                       # average number of cycles each access was blocked ((Cycle/Count))
system.cpu.l2cache.writebacks::writebacks         1526                       # number of writebacks (Count)
system.cpu.l2cache.writebacks::total             1526                       # number of writebacks (Count)
system.cpu.l2cache.demandMshrMisses::cpu.inst         1327                       # number of demand (read+write) MSHR misses (Count)
system.cpu.l2cache.demandMshrMisses::cpu.data         6029                       # number of demand (read+write) MSHR misses (Count)
system.cpu.l2cache.demandMshrMisses::total         7356                       # number of demand (read+write) MSHR misses (Count)
system.cpu.l2cache.overallMshrMisses::cpu.inst         1327                       # number of overall MSHR misses (Count)
system.cpu.l2cache.overallMshrMisses::cpu.data         6029                       # number of overall MSHR misses (Count)
system.cpu.l2cache.overallMshrMisses::total         7356                       # number of overall MSHR misses (Count)
system.cpu.l2cache.demandMshrMissLatency::cpu.inst     85924000                       # number of demand (read+write) MSHR miss ticks (Tick)
system.cpu.l2cache.demandMshrMissLatency::cpu.data    395278000                       # number of demand (read+write) MSHR miss ticks (Tick)
system.cpu.l2cache.demandMshrMissLatency::total    481202000                       # number of demand (read+write) MSHR miss ticks (Tick)
system.cpu.l2cache.overallMshrMissLatency::cpu.inst     85924000                       # number of overall MSHR miss ticks (Tick)
system.cpu.l2cache.overallMshrMissLatency::cpu.data    395278000                       # number of overall MSHR miss ticks (Tick)
system.cpu.l2cache.overallMshrMissLatency::total    481202000                       # number of overall MSHR miss ticks (Tick)
system.cpu.l2cache.demandMshrMissRate::cpu.inst     0.972874                       # mshr miss ratio for demand accesses (Ratio)
system.cpu.l2cache.demandMshrMissRate::cpu.data     0.670336                       # mshr miss ratio for demand accesses (Ratio)
[...]
system.mem_ctrl.dram.bytesWritten::total        97664                       # Number of bytes written to this memory (Byte)
system.mem_ctrl.dram.numReads::cpu.inst          1326                       # Number of read requests responded to by this memory (Count)
system.mem_ctrl.dram.numReads::cpu.data          6029                       # Number of read requests responded to by this memory (Count)
system.mem_ctrl.dram.numReads::total             7355                       # Number of read requests responded to by this memory (Count)
system.mem_ctrl.dram.numWrites::writebacks         1526                       # Number of write requests responded to by this memory (Count)
system.mem_ctrl.dram.numWrites::total            1526                       # Number of write requests responded to by this memory (Count)
system.mem_ctrl.dram.bwRead::cpu.inst        15946132                       # Total read bandwidth from this memory ((Byte/Second))
system.mem_ctrl.dram.bwRead::cpu.data        72503191                       # Total read bandwidth from this memory ((Byte/Second))
system.mem_ctrl.dram.bwRead::total           88449323                       # Total read bandwidth from this memory ((Byte/Second))
system.mem_ctrl.dram.bwInstRead::cpu.inst     15946132                       # Instruction read bandwidth from this memory ((Byte/Second))
system.mem_ctrl.dram.bwInstRead::total       15946132                       # Instruction read bandwidth from this memory ((Byte/Second))
system.mem_ctrl.dram.bwWrite::writebacks     18351280                       # Write bandwidth from this memory ((Byte/Second))
system.mem_ctrl.dram.bwWrite::total          18351280                       # Write bandwidth from this memory ((Byte/Second))
system.mem_ctrl.dram.bwTotal::writebacks     18351280                       # Total bandwidth to/from this memory ((Byte/Second))
system.mem_ctrl.dram.bwTotal::cpu.inst       15946132                       # Total bandwidth to/from this memory ((Byte/Second))
system.mem_ctrl.dram.bwTotal::cpu.data       72503191                       # Total bandwidth to/from this memory ((Byte/Second))
system.mem_ctrl.dram.bwTotal::total         106800603                       # Total bandwidth to/from this memory ((Byte/Second))
system.mem_ctrl.dram.readBursts                  7349                       # Number of DRAM read bursts (Count)
system.mem_ctrl.dram.writeBursts                 1499                       # Number of DRAM write bursts (Count)
system.mem_ctrl.dram.perBankRdBursts::0           559                       # Per bank write bursts (Count)
system.mem_ctrl.dram.perBankRdBursts::1           554                       # Per bank write bursts (Count)
system.mem_ctrl.dram.perBankRdBursts::2           810                       # Per bank write bursts (Count)
system.mem_ctrl.dram.perBankRdBursts::3           484                       # Per bank write bursts (Count)
system.mem_ctrl.dram.perBankRdBursts::4           460                       # Per bank write bursts (Count)
system.mem_ctrl.dram.perBankRdBursts::5           377                       # Per bank write bursts (Count)
system.mem_ctrl.dram.perBankRdBursts::6           345                       # Per bank write bursts (Count)
system.mem_ctrl.dram.perBankRdBursts::7           317                       # Per bank write bursts (Count)
system.mem_ctrl.dram.perBankRdBursts::8           345                       # Per bank write bursts (Count)
system.mem_ctrl.dram.perBankRdBursts::9           443                       # Per bank write bursts (Count)
system.mem_ctrl.dram.perBankRdBursts::10          578                       # Per bank write bursts (Count)
system.mem_ctrl.dram.perBankRdBursts::11          429                       # Per bank write bursts (Count)
system.mem_ctrl.dram.perBankRdBursts::12          340                       # Per bank write bursts (Count)
system.mem_ctrl.dram.perBankRdBursts::13          387                       # Per bank write bursts (Count)
system.mem_ctrl.dram.perBankRdBursts::14          396                       # Per bank write bursts (Count)
system.mem_ctrl.dram.perBankRdBursts::15          525                       # Per bank write bursts (Count)
system.mem_ctrl.dram.perBankWrBursts::0           138                       # Per bank write bursts (Count)
system.mem_ctrl.dram.perBankWrBursts::1           145                       # Per bank write bursts (Count)
system.mem_ctrl.dram.perBankWrBursts::2           384                       # Per bank write bursts (Count)
system.mem_ctrl.dram.perBankWrBursts::3           135                       # Per bank write bursts (Count)
system.mem_ctrl.dram.perBankWrBursts::4            54                       # Per bank write bursts (Count)
system.mem_ctrl.dram.perBankWrBursts::5             6                       # Per bank write bursts (Count)
system.mem_ctrl.dram.perBankWrBursts::6            54                       # Per bank write bursts (Count)
system.mem_ctrl.dram.perBankWrBursts::7            14                       # Per bank write bursts (Count)
system.mem_ctrl.dram.perBankWrBursts::8            17                       # Per bank write bursts (Count)
system.mem_ctrl.dram.perBankWrBursts::9           105                       # Per bank write bursts (Count)
system.mem_ctrl.dram.perBankWrBursts::10          230                       # Per bank write bursts (Count)
system.mem_ctrl.dram.perBankWrBursts::11           70                       # Per bank write bursts (Count)
system.mem_ctrl.dram.perBankWrBursts::12           16                       # Per bank write bursts (Count)
system.mem_ctrl.dram.perBankWrBursts::13           26                       # Per bank write bursts (Count)
system.mem_ctrl.dram.perBankWrBursts::14           20                       # Per bank write bursts (Count)
system.mem_ctrl.dram.perBankWrBursts::15           85                       # Per bank write bursts (Count)
system.mem_ctrl.dram.totQLat                 81048750                       # Total ticks spent queuing (Tick)
system.mem_ctrl.dram.totBusLat               36745000                       # Total ticks spent in databus transfers (Tick)
system.mem_ctrl.dram.totMemAccLat           218842500                       # Total ticks spent from burst creation until serviced by the DRAM (Tick)
system.mem_ctrl.dram.avgQLat                 11028.54                       # Average queueing delay per DRAM burst ((Tick/Count))
system.mem_ctrl.dram.avgBusLat                5000.00                       # Average bus latency per DRAM burst ((Tick/Count))
system.mem_ctrl.dram.avgMemAccLat            29778.54                       # Average memory access latency per DRAM burst ((Tick/Count))
system.mem_ctrl.dram.readRowHits                 6008                       # Number of row buffer hits during reads (Count)
system.mem_ctrl.dram.writeRowHits                1257                       # Number of row buffer hits during writes (Count)
system.mem_ctrl.dram.readRowHitRate             81.75                       # Row buffer hit rate for reads (Ratio)
system.mem_ctrl.dram.writeRowHitRate            83.86                       # Row buffer hit rate for writes (Ratio)
system.mem_ctrl.dram.bytesPerActivate::samples         1568                       # Bytes accessed per row activation (Byte)
system.mem_ctrl.dram.bytesPerActivate::mean   359.346939                       # Bytes accessed per row activation (Byte)
system.mem_ctrl.dram.bytesPerActivate::gmean   241.478383                       # Bytes accessed per row activation (Byte)
system.mem_ctrl.dram.bytesPerActivate::stdev   314.522459                       # Bytes accessed per row activation (Byte)
system.mem_ctrl.dram.bytesPerActivate::0-127          328     20.92%     20.92% # Bytes accessed per row activation (Byte)
system.mem_ctrl.dram.bytesPerActivate::128-255          496     31.63%     52.55% # Bytes accessed per row activation (Byte)
system.mem_ctrl.dram.bytesPerActivate::256-383          125      7.97%     60.52% # Bytes accessed per row activation (Byte)
system.mem_ctrl.dram.bytesPerActivate::384-511          217     13.84%     74.36% # Bytes accessed per row activation (Byte)
system.mem_ctrl.dram.bytesPerActivate::512-639           91      5.80%     80.17% # Bytes accessed per row activation (Byte)
system.mem_ctrl.dram.bytesPerActivate::640-767           48      3.06%     83.23% # Bytes accessed per row activation (Byte)
system.mem_ctrl.dram.bytesPerActivate::768-895           50      3.19%     86.42% # Bytes accessed per row activation (Byte)
system.mem_ctrl.dram.bytesPerActivate::896-1023           38      2.42%     88.84% # Bytes accessed per row activation (Byte)
system.mem_ctrl.dram.bytesPerActivate::1024-1151          175     11.16%    100.00% # Bytes accessed per row activation (Byte)
system.mem_ctrl.dram.bytesPerActivate::total         1568                       # Bytes accessed per row activation (Byte)
system.mem_ctrl.dram.bytesRead                 470336                       # Total bytes read (Byte)
system.mem_ctrl.dram.bytesWritten               95936                       # Total bytes written (Byte)
system.mem_ctrl.dram.avgRdBW                88.377169                       # Average DRAM read bandwidth in MiBytes/s ((Byte/Second))
system.mem_ctrl.dram.avgWrBW                18.026585                       # Average DRAM write bandwidth in MiBytes/s ((Byte/Second))
system.mem_ctrl.dram.peakBW                  12800.00                       # Theoretical peak bandwidth in MiByte/s ((Byte/Second))
system.mem_ctrl.dram.busUtil                     0.83                       # Data bus utilization in percentage (Ratio)
system.mem_ctrl.dram.busUtilRead                 0.69                       # Data bus utilization in percentage for reads (Ratio)
system.mem_ctrl.dram.busUtilWrite                0.14                       # Data bus utilization in percentage for writes (Ratio)
system.mem_ctrl.dram.pageHitRate                82.11                       # Row buffer hit rate, read and write combined (Ratio)
system.mem_ctrl.dram.power_state.pwrStateResidencyTicks::UNDEFINED   5321917500                       # Cumulative time (in ticks) in various power states (Tick)
system.mem_ctrl.dram.rank0.actEnergy          6261780                       # Energy for activate commands per rank (pJ) (Joule)
system.mem_ctrl.dram.rank0.preEnergy          3297855                       # Energy for precharge commands per rank (pJ) (Joule)
system.mem_ctrl.dram.rank0.readEnergy        27888840                       # Energy for read commands per rank (pJ) (Joule)
system.mem_ctrl.dram.rank0.writeEnergy        4854600                       # Energy for write commands per rank (pJ) (Joule)
system.mem_ctrl.dram.rank0.refreshEnergy 419799120.000000                       # Energy for refresh commands per rank (pJ) (Joule)
system.mem_ctrl.dram.rank0.actBackEnergy   1011576150                       # Energy for active background per rank (pJ) (Joule)
system.mem_ctrl.dram.rank0.preBackEnergy   1191762720                       # Energy for precharge background per rank (pJ) (Joule)
system.mem_ctrl.dram.rank0.actPowerDownEnergy            0                       # Energy for active power-down per rank (pJ) (Joule)
system.mem_ctrl.dram.rank0.prePowerDownEnergy            0                       # Energy for precharge power-down per rank (pJ) (Joule)
system.mem_ctrl.dram.rank0.selfRefreshEnergy            0                       # Energy for self refresh per rank (pJ) (Joule)
system.mem_ctrl.dram.rank0.totalEnergy     2665441065                       # Total energy per rank (pJ) (Joule)
system.mem_ctrl.dram.rank0.averagePower    500.842237                       # Core power per rank (mW) (Watt)
system.mem_ctrl.dram.rank0.totalIdleTime            0                       # Total Idle time Per DRAM Rank (Tick)
system.mem_ctrl.dram.rank0.pwrStateTime::IDLE   3087725250                       # Time in different power states (Tick)
system.mem_ctrl.dram.rank0.pwrStateTime::REF    177580000                       # Time in different power states (Tick)
system.mem_ctrl.dram.rank0.pwrStateTime::SREF            0                       # Time in different power states (Tick)
system.mem_ctrl.dram.rank0.pwrStateTime::PRE_PDN            0                       # Time in different power states (Tick)
system.mem_ctrl.dram.rank0.pwrStateTime::ACT   2056612250                       # Time in different power states (Tick)
system.mem_ctrl.dram.rank0.pwrStateTime::ACT_PDN            0                       # Time in different power states (Tick)
system.mem_ctrl.dram.rank1.actEnergy          5040840                       # Energy for activate commands per rank (pJ) (Joule)
system.mem_ctrl.dram.rank1.preEnergy          2652705                       # Energy for precharge commands per rank (pJ) (Joule)
system.mem_ctrl.dram.rank1.readEnergy        24583020                       # Energy for read commands per rank (pJ) (Joule)
system.mem_ctrl.dram.rank1.writeEnergy        2970180                       # Energy for write commands per rank (pJ) (Joule)
system.mem_ctrl.dram.rank1.refreshEnergy 419799120.000000                       # Energy for refresh commands per rank (pJ) (Joule)
system.mem_ctrl.dram.rank1.actBackEnergy    848398830                       # Energy for active background per rank (pJ) (Joule)
system.mem_ctrl.dram.rank1.preBackEnergy   1329175200                       # Energy for precharge background per rank (pJ) (Joule)
system.mem_ctrl.dram.rank1.actPowerDownEnergy            0                       # Energy for active power-down per rank (pJ) (Joule)
system.mem_ctrl.dram.rank1.prePowerDownEnergy            0                       # Energy for precharge power-down per rank (pJ) (Joule)
system.mem_ctrl.dram.rank1.selfRefreshEnergy            0                       # Energy for self refresh per rank (pJ) (Joule)
system.mem_ctrl.dram.rank1.totalEnergy     2632619895                       # Total energy per rank (pJ) (Joule)
system.mem_ctrl.dram.rank1.averagePower    494.675067                       # Core power per rank (mW) (Watt)
system.mem_ctrl.dram.rank1.totalIdleTime            0                       # Total Idle time Per DRAM Rank (Tick)
system.mem_ctrl.dram.rank1.pwrStateTime::IDLE   3447475750                       # Time in different power states (Tick)
system.mem_ctrl.dram.rank1.pwrStateTime::REF    177580000                       # Time in different power states (Tick)
system.mem_ctrl.dram.rank1.pwrStateTime::SREF            0                       # Time in different power states (Tick)
system.mem_ctrl.dram.rank1.pwrStateTime::PRE_PDN            0                       # Time in different power states (Tick)
system.mem_ctrl.dram.rank1.pwrStateTime::ACT   1696861750                       # Time in different power states (Tick)
system.mem_ctrl.dram.rank1.pwrStateTime::ACT_PDN            0                       # Time in different power states (Tick)
system.mem_ctrl.power_state.pwrStateResidencyTicks::UNDEFINED   5321917500                       # Cumulative time (in ticks) in various power states (Tick)
system.membus.transDist::ReadResp                5701                       # Transaction distribution (Count)
system.membus.transDist::WritebackDirty          1526                       # Transaction distribution (Count)
system.membus.transDist::CleanEvict              1638                       # Transaction distribution (Count)
system.membus.transDist::ReadExReq               1654                       # Transaction distribution (Count)
system.membus.transDist::ReadExResp              1654                       # Transaction distribution (Count)
system.membus.transDist::ReadSharedReq           5701                       # Transaction distribution (Count)
system.membus.pktCount_system.cpu.l2cache.mem_side_port::system.mem_ctrl.port        17874                       # Packet count per connected requestor and responder (Count)
system.membus.pktCount_system.cpu.l2cache.mem_side_port::total        17874                       # Packet count per connected requestor and responder (Count)
system.membus.pktCount::total                   17874                       # Packet count per connected requestor and responder (Count)
system.membus.pktSize_system.cpu.l2cache.mem_side_port::system.mem_ctrl.port       568384                       # Cumulative packet size per connected requestor and responder (Byte)
system.membus.pktSize_system.cpu.l2cache.mem_side_port::total       568384                       # Cumulative packet size per connected requestor and responder (Byte)
system.membus.pktSize::total                   568384                       # Cumulative packet size per connected requestor and responder (Byte)
system.membus.snoops                                0                       # Total snoops (Count)
system.membus.snoopTraffic                          0                       # Total snoop traffic (Byte)
system.membus.snoopFanout::samples               7355                       # Request fanout histogram (Count)
system.membus.snoopFanout::mean                     0                       # Request fanout histogram (Count)
system.membus.snoopFanout::stdev                    0                       # Request fanout histogram (Count)
system.membus.snoopFanout::underflows               0      0.00%      0.00% # Request fanout histogram (Count)
system.membus.snoopFanout::0                     7355    100.00%    100.00% # Request fanout histogram (Count)
system.membus.snoopFanout::1                        0      0.00%    100.00% # Request fanout histogram (Count)
system.membus.snoopFanout::overflows                0      0.00%    100.00% # Request fanout histogram (Count)
system.membus.snoopFanout::min_value                0                       # Request fanout histogram (Count)
system.membus.snoopFanout::max_value                0                       # Request fanout histogram (Count)
system.membus.snoopFanout::total                 7355                       # Request fanout histogram (Count)
system.membus.power_state.pwrStateResidencyTicks::UNDEFINED   5321917500                       # Cumulative time (in ticks) in various power states (Tick)
system.membus.reqLayer2.occupancy             8311500                       # Layer occupancy (ticks) (Tick)
system.membus.reqLayer2.utilization               0.0                       # Layer utilization (Ratio)
system.membus.respLayer0.occupancy           19691000                       # Layer occupancy (ticks) (Tick)
system.membus.respLayer0.utilization              0.0                       # Layer utilization (Ratio)
system.membus.snoop_filter.totRequests          10519                       # Total number of requests made to the snoop filter. (Count)
system.membus.snoop_filter.hitSingleRequests         3164                       # Number of requests hitting in the snoop filter with a single holder of the requested data. (Count)
system.membus.snoop_filter.hitMultiRequests            0                       # Number of requests hitting in the snoop filter with multiple (>1) holders of the requested data. (Count)
system.membus.snoop_filter.totSnoops                0                       # Total number of snoops made to the snoop filter. (Count)
system.membus.snoop_filter.hitSingleSnoops            0                       # Number of snoops hitting in the snoop filter with a single holder of the requested data. (Count)
system.membus.snoop_filter.hitMultiSnoops            0                       # Number of snoops hitting in the snoop filter with multiple (>1) holders of the requested data. (Count)
system.workload.inst.arm                            0                       # number of arm instructions executed (Count)
system.workload.inst.quiesce                        0                       # number of quiesce instructions executed (Count)

---------- End Simulation Statistics   ----------
