
---------- Begin Simulation Statistics ----------
simSeconds                                   0.005378                       # Number of seconds simulated (Second)
simTicks                                   5377773500                       # Number of ticks simulated (Tick)
finalTick                                  5377773500                       # Number of ticks from beginning of simulation (restored from checkpoints and never reset) (Tick)
simFreq                                  1000000000000                       # The number of ticks per simulated second ((Tick/Second))
hostSeconds                                    137.59                       # Real time elapsed on the host (Second)
hostTickRate                                 39085703                       # The number of ticks simulated per host second (ticks/s) ((Tick/Second))
hostMemory                                    1198760                       # Number of bytes of host memory used (Byte)
simInsts                                     19928450                       # Number of instructions simulated (Count)
simOps                                       35336477                       # Number of ops (including micro ops) simulated (Count)
hostInstRate                                   144840                       # Simulator instruction rate (inst/s) ((Count/Second))
hostOpRate                                     256826                       # Simulator op (including micro ops) rate (op/s) ((Count/Second))
system.clk_domain.clock                           500                       # Clock period in ticks (Tick)
system.clk_domain.voltage_domain.voltage            1                       # Voltage in Volts (Volt)
system.cpu.numCycles                         10755548                       # Number of cpu cycles simulated (Cycle)
system.cpu.numWorkItemsStarted                      0                       # Number of work items this cpu started (Count)
system.cpu.numWorkItemsCompleted                    0                       # Number of work items this cpu completed (Count)
system.cpu.instsAdded                        35862401                       # Number of instructions added to the IQ (excludes non-spec) (Count)
system.cpu.nonSpecInstsAdded                       37                       # Number of non-speculative instructions added to the IQ (Count)
system.cpu.instsIssued                       35720201                       # Number of instructions issued (Count)
system.cpu.squashedInstsIssued                   1293                       # Number of squashed instructions issued (Count)
system.cpu.squashedInstsExamined               525955                       # Number of squashed instructions iterated over during squash; mainly for profiling (Count)
system.cpu.squashedOperandsExamined            610348                       # Number of squashed operands that are examined and possibly removed from graph (Count)
system.cpu.squashedNonSpecRemoved                  19                       # Number of squashed non-spec instructions that were removed (Count)
system.cpu.numIssuedDist::samples            10651247                       # Number of insts issued each cycle (Count)
system.cpu.numIssuedDist::mean               3.353617                       # Number of insts issued each cycle (Count)
system.cpu.numIssuedDist::stdev              1.954096                       # Number of insts issued each cycle (Count)
system.cpu.numIssuedDist::underflows                0      0.00%      0.00% # Number of insts issued each cycle (Count)
system.cpu.numIssuedDist::0                    832887      7.82%      7.82% # Number of insts issued each cycle (Count)
system.cpu.numIssuedDist::1                   1227602     11.53%     19.35% # Number of insts issued each cycle (Count)
system.cpu.numIssuedDist::2                    954895      8.97%     28.31% # Number of insts issued each cycle (Count)
system.cpu.numIssuedDist::3                   3261771     30.62%     58.93% # Number of insts issued each cycle (Count)
system.cpu.numIssuedDist::4                   1692815     15.89%     74.83% # Number of insts issued each cycle (Count)
system.cpu.numIssuedDist::5                   1210839     11.37%     86.19% # Number of insts issued each cycle (Count)
system.cpu.numIssuedDist::6                    734161      6.89%     93.09% # Number of insts issued each cycle (Count)
system.cpu.numIssuedDist::7                    323141      3.03%     96.12% # Number of insts issued each cycle (Count)
system.cpu.numIssuedDist::8                    413136      3.88%    100.00% # Number of insts issued each cycle (Count)
system.cpu.numIssuedDist::overflows                 0      0.00%    100.00% # Number of insts issued each cycle (Count)
system.cpu.numIssuedDist::min_value                 0                       # Number of insts issued each cycle (Count)
system.cpu.numIssuedDist::max_value                 8                       # Number of insts issued each cycle (Count)
system.cpu.numIssuedDist::total              10651247                       # Number of insts issued each cycle (Count)
system.cpu.statFuBusy::No_OpClass                   0      0.00%      0.00% # attempts to use FU when none available (Count)
system.cpu.statFuBusy::IntAlu                  573949     95.20%     95.20% # attempts to use FU when none available (Count)
system.cpu.statFuBusy::IntMult                      0      0.00%     95.20% # attempts to use FU when none available (Count)
system.cpu.statFuBusy::IntDiv                       0      0.00%     95.20% # attempts to use FU when none available (Count)
system.cpu.statFuBusy::FloatAdd                     0      0.00%     95.20% # attempts to use FU when none available (Count)
system.cpu.statFuBusy::FloatCmp                     0      0.00%     95.20% # attempts to use FU when none available (Count)
system.cpu.statFuBusy::FloatCvt                     0      0.00%     95.20% # attempts to use FU when none available (Count)
system.cpu.statFuBusy::FloatMult                    0      0.00%     95.20% # attempts to use FU when none available (Count)
system.cpu.statFuBusy::FloatMultAcc                 0      0.00%     95.20% # attempts to use FU when none available (Count)
system.cpu.statFuBusy::FloatDiv                     0      0.00%     95.20% # attempts to use FU when none available (Count)
system.cpu.statFuBusy::FloatMisc                    0      0.00%     95.20% # attempts to use FU when none available (Count)
system.cpu.statFuBusy::FloatSqrt                    0      0.00%     95.20% # attempts to use FU when none available (Count)
system.cpu.statFuBusy::SimdAdd                      0      0.00%     95.20% # attempts to use FU when none available (Count)
system.cpu.statFuBusy::SimdAddAcc                   0      0.00%     95.20% # attempts to use FU when none available (Count)
system.cpu.statFuBusy::SimdAlu                   1019      0.17%     95.37% # attempts to use FU when none available (Count)
system.cpu.statFuBusy::SimdCmp                      0      0.00%     95.37% # attempts to use FU when none available (Count)
system.cpu.statFuBusy::SimdCvt                     31      0.01%     95.37% # attempts to use FU when none available (Count)
system.cpu.statFuBusy::SimdMisc                     5      0.00%     95.37% # attempts to use FU when none available (Count)
system.cpu.statFuBusy::SimdMult                     0      0.00%     95.37% # attempts to use FU when none available (Count)
system.cpu.statFuBusy::SimdMultAcc                  0      0.00%     95.37% # attempts to use FU when none available (Count)
system.cpu.statFuBusy::SimdShift                    0      0.00%     95.37% # attempts to use FU when none available (Count)
system.cpu.statFuBusy::SimdShiftAcc                 0      0.00%     95.37% # attempts to use FU when none available (Count)
system.cpu.statFuBusy::SimdDiv                      0      0.00%     95.37% # attempts to use FU when none available (Count)
system.cpu.statFuBusy::SimdSqrt                     0      0.00%     95.37% # attempts to use FU when none available (Count)
system.cpu.statFuBusy::SimdFloatAdd                 0      0.00%     95.37% # attempts to use FU when none available (Count)
system.cpu.statFuBusy::SimdFloatAlu                 0      0.00%     95.37% # attempts to use FU when none available (Count)
system.cpu.statFuBusy::SimdFloatCmp                 0      0.00%     95.37% # attempts to use FU when none available (Count)
system.cpu.statFuBusy::SimdFloatCvt                 0      0.00%     95.37% # attempts to use FU when none available (Count)
system.cpu.statFuBusy::SimdFloatDiv                 0      0.00%     95.37% # attempts to use FU when none available (Count)
system.cpu.statFuBusy::SimdFloatMisc                0      0.00%     95.37% # attempts to use FU when none available (Count)
system.cpu.statFuBusy::SimdFloatMult                0      0.00%     95.37% # attempts to use FU when none available (Count)
system.cpu.statFuBusy::SimdFloatMultAcc             0      0.00%     95.37% # attempts to use FU when none available (Count)
system.cpu.statFuBusy::SimdFloatSqrt                0      0.00%     95.37% # attempts to use FU when none available (Count)
system.cpu.statFuBusy::SimdReduceAdd                0      0.00%     95.37% # attempts to use FU when none available (Count)
system.cpu.statFuBusy::SimdReduceAlu                0      0.00%     95.37% # attempts to use FU when none available (Count)
system.cpu.statFuBusy::SimdReduceCmp                0      0.00%     95.37% # attempts to use FU when none available (Count)
system.cpu.statFuBusy::SimdFloatReduceAdd            0      0.00%     95.37% # attempts to use FU when none available (Count)
system.cpu.statFuBusy::SimdFloatReduceCmp            0      0.00%     95.37% # attempts to use FU when none available (Count)
system.cpu.statFuBusy::SimdAes                      0      0.00%     95.37% # attempts to use FU when none available (Count)
system.cpu.statFuBusy::SimdAesMix                   0      0.00%     95.37% # attempts to use FU when none available (Count)
system.cpu.statFuBusy::SimdSha1Hash                 0      0.00%     95.37% # attempts to use FU when none available (Count)
system.cpu.statFuBusy::SimdSha1Hash2                0      0.00%     95.37% # attempts to use FU when none available (Count)
system.cpu.statFuBusy::SimdSha256Hash               0      0.00%     95.37% # attempts to use FU when none available (Count)
system.cpu.statFuBusy::SimdSha256Hash2              0      0.00%     95.37% # attempts to use FU when none available (Count)
system.cpu.statFuBusy::SimdShaSigma2                0      0.00%     95.37% # attempts to use FU when none available (Count)
system.cpu.statFuBusy::SimdShaSigma3                0      0.00%     95.37% # attempts to use FU when none available (Count)
system.cpu.statFuBusy::SimdPredAlu                  0      0.00%     95.37% # attempts to use FU when none available (Count)
system.cpu.statFuBusy::MemRead                  18591      3.08%     98.46% # attempts to use FU when none available (Count)
system.cpu.statFuBusy::MemWrite                  2428      0.40%     98.86% # attempts to use FU when none available (Count)
system.cpu.statFuBusy::FloatMemRead              1974      0.33%     99.19% # attempts to use FU when none available (Count)
system.cpu.statFuBusy::FloatMemWrite             4902      0.81%    100.00% # attempts to use FU when none available (Count)
system.cpu.statFuBusy::IprAccess                    0      0.00%    100.00% # attempts to use FU when none available (Count)
system.cpu.statFuBusy::InstPrefetch                 0      0.00%    100.00% # attempts to use FU when none available (Count)
system.cpu.statIssuedInstType_0::No_OpClass       594103      1.66%      1.66% # Number of instructions issued per FU type, per thread (Count)
system.cpu.statIssuedInstType_0::IntAlu      20324133     56.90%     58.56% # Number of instructions issued per FU type, per thread (Count)
system.cpu.statIssuedInstType_0::IntMult       517545      1.45%     60.01% # Number of instructions issued per FU type, per thread (Count)
system.cpu.statIssuedInstType_0::IntDiv         54226      0.15%     60.16% # Number of instructions issued per FU type, per thread (Count)
system.cpu.statIssuedInstType_0::FloatAdd      1517326      4.25%     64.41% # Number of instructions issued per FU type, per thread (Count)
system.cpu.statIssuedInstType_0::FloatCmp            0      0.00%     64.41% # Number of instructions issued per FU type, per thread (Count)
system.cpu.statIssuedInstType_0::FloatCvt           32      0.00%     64.41% # Number of instructions issued per FU type, per thread (Count)
system.cpu.statIssuedInstType_0::FloatMult            0      0.00%     64.41% # Number of instructions issued per FU type, per thread (Count)
system.cpu.statIssuedInstType_0::FloatMultAcc            0      0.00%     64.41% # Number of instructions issued per FU type, per thread (Count)
system.cpu.statIssuedInstType_0::FloatDiv            0      0.00%     64.41% # Number of instructions issued per FU type, per thread (Count)
system.cpu.statIssuedInstType_0::FloatMisc            0      0.00%     64.41% # Number of instructions issued per FU type, per thread (Count)
system.cpu.statIssuedInstType_0::FloatSqrt            0      0.00%     64.41% # Number of instructions issued per FU type, per thread (Count)
system.cpu.statIssuedInstType_0::SimdAdd          463      0.00%     64.41% # Number of instructions issued per FU type, per thread (Count)
system.cpu.statIssuedInstType_0::SimdAddAcc            0      0.00%     64.41% # Number of instructions issued per FU type, per thread (Count)
system.cpu.statIssuedInstType_0::SimdAlu        19182      0.05%     64.46% # Number of instructions issued per FU type, per thread (Count)
system.cpu.statIssuedInstType_0::SimdCmp            8      0.00%     64.46% # Number of instructions issued per FU type, per thread (Count)
system.cpu.statIssuedInstType_0::SimdCvt        11135      0.03%     64.50% # Number of instructions issued per FU type, per thread (Count)
system.cpu.statIssuedInstType_0::SimdMisc        24993      0.07%     64.57% # Number of instructions issued per FU type, per thread (Count)
system.cpu.statIssuedInstType_0::SimdMult            0      0.00%     64.57% # Number of instructions issued per FU type, per thread (Count)
system.cpu.statIssuedInstType_0::SimdMultAcc            0      0.00%     64.57% # Number of instructions issued per FU type, per thread (Count)
system.cpu.statIssuedInstType_0::SimdShift          334      0.00%     64.57% # Number of instructions issued per FU type, per thread (Count)
system.cpu.statIssuedInstType_0::SimdShiftAcc            0      0.00%     64.57% # Number of instructions issued per FU type, per thread (Count)
system.cpu.statIssuedInstType_0::SimdDiv            0      0.00%     64.57% # Number of instructions issued per FU type, per thread (Count)
system.cpu.statIssuedInstType_0::SimdSqrt            0      0.00%     64.57% # Number of instructions issued per FU type, per thread (Count)
system.cpu.statIssuedInstType_0::SimdFloatAdd            0      0.00%     64.57% # Number of instructions issued per FU type, per thread (Count)
system.cpu.statIssuedInstType_0::SimdFloatAlu            0      0.00%     64.57% # Number of instructions issued per FU type, per thread (Count)
system.cpu.statIssuedInstType_0::SimdFloatCmp            0      0.00%     64.57% # Number of instructions issued per FU type, per thread (Count)
system.cpu.statIssuedInstType_0::SimdFloatCvt       508521      1.42%     65.99% # Number of instructions issued per FU type, per thread (Count)
system.cpu.statIssuedInstType_0::SimdFloatDiv            0      0.00%     65.99% # Number of instructions issued per FU type, per thread (Count)
system.cpu.statIssuedInstType_0::SimdFloatMisc            0      0.00%     65.99% # Number of instructions issued per FU type, per thread (Count)
system.cpu.statIssuedInstType_0::SimdFloatMult            0      0.00%     65.99% # Number of instructions issued per FU type, per thread (Count)
system.cpu.statIssuedInstType_0::SimdFloatMultAcc            0      0.00%     65.99% # Number of instructions issued per FU type, per thread (Count)
system.cpu.statIssuedInstType_0::SimdFloatSqrt            0      0.00%     65.99% # Number of instructions issued per FU type, per thread (Count)
system.cpu.statIssuedInstType_0::SimdReduceAdd            0      0.00%     65.99% # Number of instructions issued per FU type, per thread (Count)
system.cpu.statIssuedInstType_0::SimdReduceAlu            0      0.00%     65.99% # Number of instructions issued per FU type, per thread (Count)
system.cpu.statIssuedInstType_0::SimdReduceCmp            0      0.00%     65.99% # Number of instructions issued per FU type, per thread (Count)
system.cpu.statIssuedInstType_0::SimdFloatReduceAdd            0      0.00%     65.99% # Number of instructions issued per FU type, per thread (Count)
system.cpu.statIssuedInstType_0::SimdFloatReduceCmp            0      0.00%     65.99% # Number of instructions issued per FU type, per thread (Count)
system.cpu.statIssuedInstType_0::SimdAes            0      0.00%     65.99% # Number of instructions issued per FU type, per thread (Count)
system.cpu.statIssuedInstType_0::SimdAesMix            0      0.00%     65.99% # Number of instructions issued per FU type, per thread (Count)
system.cpu.statIssuedInstType_0::SimdSha1Hash            0      0.00%     65.99% # Number of instructions issued per FU type, per thread (Count)
system.cpu.statIssuedInstType_0::SimdSha1Hash2            0      0.00%     65.99% # Number of instructions issued per FU type, per thread (Count)
system.cpu.statIssuedInstType_0::SimdSha256Hash            0      0.00%     65.99% # Number of instructions issued per FU type, per thread (Count)
system.cpu.statIssuedInstType_0::SimdSha256Hash2            0      0.00%     65.99% # Number of instructions issued per FU type, per thread (Count)
system.cpu.statIssuedInstType_0::SimdShaSigma2            0      0.00%     65.99% # Number of instructions issued per FU type, per thread (Count)
system.cpu.statIssuedInstType_0::SimdShaSigma3            0      0.00%     65.99% # Number of instructions issued per FU type, per thread (Count)
system.cpu.statIssuedInstType_0::SimdPredAlu            0      0.00%     65.99% # Number of instructions issued per FU type, per thread (Count)
system.cpu.statIssuedInstType_0::MemRead      5993763     16.78%     82.77% # Number of instructions issued per FU type, per thread (Count)
system.cpu.statIssuedInstType_0::MemWrite      3074765      8.61%     91.38% # Number of instructions issued per FU type, per thread (Count)
system.cpu.statIssuedInstType_0::FloatMemRead      2047194      5.73%     97.11% # Number of instructions issued per FU type, per thread (Count)
system.cpu.statIssuedInstType_0::FloatMemWrite      1032478      2.89%    100.00% # Number of instructions issued per FU type, per thread (Count)
system.cpu.statIssuedInstType_0::IprAccess            0      0.00%    100.00% # Number of instructions issued per FU type, per thread (Count)
system.cpu.statIssuedInstType_0::InstPrefetch            0      0.00%    100.00% # Number of instructions issued per FU type, per thread (Count)
system.cpu.statIssuedInstType_0::total       35720201                       # Number of instructions issued per FU type, per thread (Count)
system.cpu.issueRate                         3.321095                       # Inst issue rate ((Count/Cycle))
system.cpu.fuBusy                              602899                       # FU busy when requested (Count)
system.cpu.fuBusyRate                        0.016878                       # FU busy rate (busy events/executed inst) ((Count/Count))
system.cpu.intInstQueueReads                 72347903                       # Number of integer instruction queue reads (Count)
system.cpu.intInstQueueWrites                31202559                       # Number of integer instruction queue writes (Count)
system.cpu.intInstQueueWakeupAccesses        30502158                       # Number of integer instruction queue wakeup accesses (Count)
system.cpu.fpInstQueueReads                  10347938                       # Number of floating instruction queue reads (Count)
system.cpu.fpInstQueueWrites                  5186344                       # Number of floating instruction queue writes (Count)
system.cpu.fpInstQueueWakeupAccesses          5160356                       # Number of floating instruction queue wakeup accesses (Count)
system.cpu.vecInstQueueReads                        0                       # Number of vector instruction queue reads (Count)
system.cpu.vecInstQueueWrites                       0                       # Number of vector instruction queue writes (Count)
system.cpu.vecInstQueueWakeupAccesses               0                       # Number of vector instruction queue wakeup accesses (Count)
system.cpu.intAluAccesses                    30551076                       # Number of integer alu accesses (Count)
system.cpu.fpAluAccesses                      5177921                       # Number of floating point alu accesses (Count)
system.cpu.vecAluAccesses                           0                       # Number of vector alu accesses (Count)
system.cpu.numInsts                          35687670                       # Number of executed instructions (Count)
system.cpu.numLoadInsts                       8036465                       # Number of load instructions executed (Count)
system.cpu.numSquashedInsts                     32531                       # Number of squashed instructions skipped in execute (Count)
system.cpu.numSwp                                   0                       # Number of swp insts executed (Count)
system.cpu.numNop                                   0                       # Number of nop insts executed (Count)
system.cpu.numRefs                           12139791                       # Number of memory reference insts executed (Count)
system.cpu.numBranches                        3313145                       # Number of branches executed (Count)
system.cpu.numStoreInsts                      4103326                       # Number of stores executed (Count)
system.cpu.numRate                           3.318071                       # Inst execution rate ((Count/Cycle))
system.cpu.timesIdled                             952                       # Number of times that the entire CPU went into an idle state and unscheduled itself (Count)
system.cpu.idleCycles                          104301                       # Total number of cycles that the CPU has spent unscheduled due to idling (Cycle)
system.cpu.committedInsts                    19928450                       # Number of Instructions Simulated (Count)
system.cpu.committedOps                      35336477                       # Number of Ops (including micro ops) Simulated (Count)
system.cpu.cpi                               0.539708                       # CPI: Cycles Per Instruction ((Cycle/Count))
system.cpu.totalCpi                          0.539708                       # CPI: Total CPI of All Threads ((Cycle/Count))
system.cpu.ipc                               1.852853                       # IPC: Instructions Per Cycle ((Count/Cycle))
system.cpu.totalIpc                          1.852853                       # IPC: Total IPC of All Threads ((Count/Cycle))
system.cpu.intRegfileReads                   55759217                       # Number of integer regfile reads (Count)
system.cpu.intRegfileWrites                  24158282                       # Number of integer regfile writes (Count)
system.cpu.fpRegfileReads                     2180994                       # Number of floating regfile reads (Count)
system.cpu.fpRegfileWrites                    3610992                       # Number of floating regfile writes (Count)
system.cpu.ccRegfileReads                    10404218                       # number of cc regfile reads (Count)
system.cpu.ccRegfileWrites                    5890445                       # number of cc regfile writes (Count)
system.cpu.miscRegfileReads                  18230488                       # number of misc regfile reads (Count)
system.cpu.miscRegfileWrites                       18                       # number of misc regfile writes (Count)
system.cpu.MemDepUnit__0.insertedLoads        8057613                       # Number of loads inserted to the mem dependence unit. (Count)
system.cpu.MemDepUnit__0.insertedStores       4112979                       # Number of stores inserted to the mem dependence unit. (Count)
system.cpu.MemDepUnit__0.conflictingLoads      2573650                       # Number of conflicting loads. (Count)
system.cpu.MemDepUnit__0.conflictingStores       585875                       # Number of conflicting stores. (Count)
system.cpu.MemDepUnit__1.insertedLoads              0                       # Number of loads inserted to the mem dependence unit. (Count)
system.cpu.MemDepUnit__1.insertedStores             0                       # Number of stores inserted to the mem dependence unit. (Count)
system.cpu.MemDepUnit__1.conflictingLoads            0                       # Number of conflicting loads. (Count)
system.cpu.MemDepUnit__1.conflictingStores            0                       # Number of conflicting stores. (Count)
system.cpu.MemDepUnit__2.insertedLoads              0                       # Number of loads inserted to the mem dependence unit. (Count)
system.cpu.MemDepUnit__2.insertedStores             0                       # Number of stores inserted to the mem dependence unit. (Count)
system.cpu.MemDepUnit__2.conflictingLoads            0                       # Number of conflicting loads. (Count)
system.cpu.MemDepUnit__2.conflictingStores            0                       # Number of conflicting stores. (Count)
system.cpu.MemDepUnit__3.insertedLoads              0                       # Number of loads inserted to the mem dependence unit. (Count)
system.cpu.MemDepUnit__3.insertedStores             0                       # Number of stores inserted to the mem dependence unit. (Count)
system.cpu.MemDepUnit__3.conflictingLoads            0                       # Number of conflicting loads. (Count)
system.cpu.MemDepUnit__3.conflictingStores            0                       # Number of conflicting stores. (Count)
system.cpu.branchPred.lookups                 3381305                       # Number of BP lookups (Count)
system.cpu.branchPred.condPredicted           1646070                       # Number of conditional branches predicted (Count)
system.cpu.branchPred.condIncorrect             14892                       # Number of conditional branches incorrect (Count)
system.cpu.branchPred.BTBLookups              1382111                       # Number of BTB lookups (Count)
system.cpu.branchPred.BTBHits                 1377920                       # Number of BTB hits (Count)
system.cpu.branchPred.BTBHitRatio            0.996968                       # BTB Hit Ratio (Ratio)
system.cpu.branchPred.RASUsed                  572627                       # Number of times the RAS was used to get a target. (Count)
system.cpu.branchPred.RASIncorrect                993                       # Number of incorrect RAS predictions. (Count)
system.cpu.branchPred.indirectLookups          531210                       # Number of indirect predictor lookups. (Count)
system.cpu.branchPred.indirectHits             529758                       # Number of indirect target hits. (Count)
system.cpu.branchPred.indirectMisses             1452                       # Number of indirect misses. (Count)
system.cpu.branchPred.indirectMispredicted          311                       # Number of mispredicted indirect branches. (Count)
system.cpu.commit.commitSquashedInsts          493848                       # The number of squashed insts skipped by commit (Count)
system.cpu.commit.commitNonSpecStalls              18                       # The number of times commit has been forced to stall to communicate backwards (Count)
system.cpu.commit.branchMispredicts             13675                       # The number of times a branch was mispredicted (Count)
system.cpu.commit.numCommittedDist::samples     10579737                       # Number of insts commited each cycle (Count)
system.cpu.commit.numCommittedDist::mean     3.340015                       # Number of insts commited each cycle (Count)
system.cpu.commit.numCommittedDist::stdev     3.119321                       # Number of insts commited each cycle (Count)
system.cpu.commit.numCommittedDist::underflows            0      0.00%      0.00% # Number of insts commited each cycle (Count)
system.cpu.commit.numCommittedDist::0         2854384     26.98%     26.98% # Number of insts commited each cycle (Count)
system.cpu.commit.numCommittedDist::1          804242      7.60%     34.58% # Number of insts commited each cycle (Count)
system.cpu.commit.numCommittedDist::2         1911640     18.07%     52.65% # Number of insts commited each cycle (Count)
system.cpu.commit.numCommittedDist::3         1222246     11.55%     64.20% # Number of insts commited each cycle (Count)
system.cpu.commit.numCommittedDist::4          604024      5.71%     69.91% # Number of insts commited each cycle (Count)
system.cpu.commit.numCommittedDist::5           98002      0.93%     70.84% # Number of insts commited each cycle (Count)
system.cpu.commit.numCommittedDist::6           65457      0.62%     71.46% # Number of insts commited each cycle (Count)
system.cpu.commit.numCommittedDist::7          414567      3.92%     75.38% # Number of insts commited each cycle (Count)
system.cpu.commit.numCommittedDist::8         2605175     24.62%    100.00% # Number of insts commited each cycle (Count)
system.cpu.commit.numCommittedDist::overflows            0      0.00%    100.00% # Number of insts commited each cycle (Count)
system.cpu.commit.numCommittedDist::min_value            0                       # Number of insts commited each cycle (Count)
system.cpu.commit.numCommittedDist::max_value            8                       # Number of insts commited each cycle (Count)
system.cpu.commit.numCommittedDist::total     10579737                       # Number of insts commited each cycle (Count)
system.cpu.commit.instsCommitted             19928450                       # Number of instructions committed (Count)
system.cpu.commit.opsCommitted               35336477                       # Number of ops (including micro ops) committed (Count)
system.cpu.commit.memRefs                    12069539                       # Number of memory references committed (Count)
system.cpu.commit.loads                       7978510                       # Number of loads committed (Count)
system.cpu.commit.amos                              0                       # Number of atomic instructions committed (Count)
system.cpu.commit.membars                           0                       # Number of memory barriers committed (Count)
system.cpu.commit.branches                    3283692                       # Number of branches committed (Count)
system.cpu.commit.vectorInstructions                0                       # Number of committed Vector instructions. (Count)
system.cpu.commit.floating                    5154398                       # Number of committed floating point instructions. (Count)
system.cpu.commit.integer                    32657360                       # Number of committed integer instructions. (Count)
system.cpu.commit.functionCalls                563369                       # Number of function calls committed. (Count)
system.cpu.commit.committedInstType_0::No_OpClass       589130      1.67%      1.67% # Class of committed instruction (Count)
system.cpu.commit.committedInstType_0::IntAlu     20030633     56.69%     58.35% # Class of committed instruction (Count)
system.cpu.commit.committedInstType_0::IntMult       516165      1.46%     59.81% # Class of committed instruction (Count)
system.cpu.commit.committedInstType_0::IntDiv        53994      0.15%     59.97% # Class of committed instruction (Count)
system.cpu.commit.committedInstType_0::FloatAdd      1513865      4.28%     64.25% # Class of committed instruction (Count)
system.cpu.commit.committedInstType_0::FloatCmp            0      0.00%     64.25% # Class of committed instruction (Count)
system.cpu.commit.committedInstType_0::FloatCvt           32      0.00%     64.25% # Class of committed instruction (Count)
system.cpu.commit.committedInstType_0::FloatMult            0      0.00%     64.25% # Class of committed instruction (Count)
system.cpu.commit.committedInstType_0::FloatMultAcc            0      0.00%     64.25% # Class of committed instruction (Count)
system.cpu.commit.committedInstType_0::FloatDiv            0      0.00%     64.25% # Class of committed instruction (Count)
system.cpu.commit.committedInstType_0::FloatMisc            0      0.00%     64.25% # Class of committed instruction (Count)
system.cpu.commit.committedInstType_0::FloatSqrt            0      0.00%     64.25% # Class of committed instruction (Count)
system.cpu.commit.committedInstType_0::SimdAdd          326      0.00%     64.25% # Class of committed instruction (Count)
system.cpu.commit.committedInstType_0::SimdAddAcc            0      0.00%     64.25% # Class of committed instruction (Count)
system.cpu.commit.committedInstType_0::SimdAlu        18662      0.05%     64.30% # Class of committed instruction (Count)
system.cpu.commit.committedInstType_0::SimdCmp            6      0.00%     64.30% # Class of committed instruction (Count)
system.cpu.commit.committedInstType_0::SimdCvt        10720      0.03%     64.33% # Class of committed instruction (Count)
system.cpu.commit.committedInstType_0::SimdMisc        24821      0.07%     64.40% # Class of committed instruction (Count)
system.cpu.commit.committedInstType_0::SimdMult            0      0.00%     64.40% # Class of committed instruction (Count)
system.cpu.commit.committedInstType_0::SimdMultAcc            0      0.00%     64.40% # Class of committed instruction (Count)
system.cpu.commit.committedInstType_0::SimdShift           90      0.00%     64.40% # Class of committed instruction (Count)
system.cpu.commit.committedInstType_0::SimdShiftAcc            0      0.00%     64.40% # Class of committed instruction (Count)
system.cpu.commit.committedInstType_0::SimdDiv            0      0.00%     64.40% # Class of committed instruction (Count)
system.cpu.commit.committedInstType_0::SimdSqrt            0      0.00%     64.40% # Class of committed instruction (Count)
system.cpu.commit.committedInstType_0::SimdFloatAdd            0      0.00%     64.40% # Class of committed instruction (Count)
system.cpu.commit.committedInstType_0::SimdFloatAlu            0      0.00%     64.40% # Class of committed instruction (Count)
system.cpu.commit.committedInstType_0::SimdFloatCmp            0      0.00%     64.40% # Class of committed instruction (Count)
system.cpu.commit.committedInstType_0::SimdFloatCvt       508494      1.44%     65.84% # Class of committed instruction (Count)
system.cpu.commit.committedInstType_0::SimdFloatDiv            0      0.00%     65.84% # Class of committed instruction (Count)
system.cpu.commit.committedInstType_0::SimdFloatMisc            0      0.00%     65.84% # Class of committed instruction (Count)
system.cpu.commit.committedInstType_0::SimdFloatMult            0      0.00%     65.84% # Class of committed instruction (Count)
system.cpu.commit.committedInstType_0::SimdFloatMultAcc            0      0.00%     65.84% # Class of committed instruction (Count)
system.cpu.commit.committedInstType_0::SimdFloatSqrt            0      0.00%     65.84% # Class of committed instruction (Count)
system.cpu.commit.committedInstType_0::SimdReduceAdd            0      0.00%     65.84% # Class of committed instruction (Count)
system.cpu.commit.committedInstType_0::SimdReduceAlu            0      0.00%     65.84% # Class of committed instruction (Count)
system.cpu.commit.committedInstType_0::SimdReduceCmp            0      0.00%     65.84% # Class of committed instruction (Count)
system.cpu.commit.committedInstType_0::SimdFloatReduceAdd            0      0.00%     65.84% # Class of committed instruction (Count)
system.cpu.commit.committedInstType_0::SimdFloatReduceCmp            0      0.00%     65.84% # Class of committed instruction (Count)
system.cpu.commit.committedInstType_0::SimdAes            0      0.00%     65.84% # Class of committed instruction (Count)
system.cpu.commit.committedInstType_0::SimdAesMix            0      0.00%     65.84% # Class of committed instruction (Count)
system.cpu.commit.committedInstType_0::SimdSha1Hash            0      0.00%     65.84% # Class of committed instruction (Count)
system.cpu.commit.committedInstType_0::SimdSha1Hash2            0      0.00%     65.84% # Class of committed instruction (Count)
system.cpu.commit.committedInstType_0::SimdSha256Hash            0      0.00%     65.84% # Class of committed instruction (Count)
system.cpu.commit.committedInstType_0::SimdSha256Hash2            0      0.00%     65.84% # Class of committed instruction (Count)
system.cpu.commit.committedInstType_0::SimdShaSigma2            0      0.00%     65.84% # Class of committed instruction (Count)
system.cpu.commit.committedInstType_0::SimdShaSigma3            0      0.00%     65.84% # Class of committed instruction (Count)
system.cpu.commit.committedInstType_0::SimdPredAlu            0      0.00%     65.84% # Class of committed instruction (Count)
system.cpu.commit.committedInstType_0::MemRead      5941599     16.81%     82.66% # Class of committed instruction (Count)
system.cpu.commit.committedInstType_0::MemWrite      3058838      8.66%     91.31% # Class of committed instruction (Count)
system.cpu.commit.committedInstType_0::FloatMemRead      2036911      5.76%     97.08% # Class of committed instruction (Count)
system.cpu.commit.committedInstType_0::FloatMemWrite      1032191      2.92%    100.00% # Class of committed instruction (Count)
system.cpu.commit.committedInstType_0::IprAccess            0      0.00%    100.00% # Class of committed instruction (Count)
system.cpu.commit.committedInstType_0::InstPrefetch            0      0.00%    100.00% # Class of committed instruction (Count)
system.cpu.commit.committedInstType_0::total     35336477                       # Class of committed instruction (Count)
system.cpu.commit.commitEligibleSamples       2605175                       # number cycles where commit BW limit reached (Cycle)
system.cpu.dcache.demandHits::cpu.data        7872433                       # number of demand (read+write) hits (Count)
system.cpu.dcache.demandHits::total           7872433                       # number of demand (read+write) hits (Count)
system.cpu.dcache.overallHits::cpu.data       7872433                       # number of overall hits (Count)
system.cpu.dcache.overallHits::total          7872433                       # number of overall hits (Count)
system.cpu.dcache.demandMisses::cpu.data        29609                       # number of demand (read+write) misses (Count)
system.cpu.dcache.demandMisses::total           29609                       # number of demand (read+write) misses (Count)
system.cpu.dcache.overallMisses::cpu.data        29609                       # number of overall misses (Count)
system.cpu.dcache.overallMisses::total          29609                       # number of overall misses (Count)
system.cpu.dcache.demandMissLatency::cpu.data   1575843998                       # number of demand (read+write) miss ticks (Tick)
system.cpu.dcache.demandMissLatency::total   1575843998                       # number of demand (read+write) miss ticks (Tick)
system.cpu.dcache.overallMissLatency::cpu.data   1575843998                       # number of overall miss ticks (Tick)
system.cpu.dcache.overallMissLatency::total   1575843998                       # number of overall miss ticks (Tick)
system.cpu.dcache.demandAccesses::cpu.data      7902042                       # number of demand (read+write) accesses (Count)
system.cpu.dcache.demandAccesses::total       7902042                       # number of demand (read+write) accesses (Count)
system.cpu.dcache.overallAccesses::cpu.data      7902042                       # number of overall (read+write) accesses (Count)
system.cpu.dcache.overallAccesses::total      7902042                       # number of overall (read+write) accesses (Count)
system.cpu.dcache.demandMissRate::cpu.data     0.003747                       # miss rate for demand accesses (Ratio)
system.cpu.dcache.demandMissRate::total      0.003747                       # miss rate for demand accesses (Ratio)
system.cpu.dcache.overallMissRate::cpu.data     0.003747                       # miss rate for overall accesses (Ratio)
system.cpu.dcache.overallMissRate::total     0.003747                       # miss rate for overall accesses (Ratio)
system.cpu.dcache.demandAvgMissLatency::cpu.data 53221.790604                       # average overall miss latency ((Cycle/Count))
system.cpu.dcache.demandAvgMissLatency::total 53221.790604                       # average overall miss latency ((Cycle/Count))
system.cpu.dcache.overallAvgMissLatency::cpu.data 53221.790604                       # average overall miss latency ((Cycle/Count))
system.cpu.dcache.overallAvgMissLatency::total 53221.790604                       # average overall miss latency ((Cycle/Count))
system.cpu.dcache.blockedCycles::no_mshrs        16949                       # number of cycles access was blocked (Cycle)
system.cpu.dcache.blockedCycles::no_targets            0                       # number of cycles access was blocked (Cycle)
system.cpu.dcache.blockedCauses::no_mshrs          349                       # number of times access was blocked (Count)
system.cpu.dcache.blockedCauses::no_targets            0                       # number of times access was blocked (Count)
system.cpu.dcache.avgBlocked::no_mshrs      48.564470                       # average number of cycles each access was blocked ((Cycle/Count))
system.cpu.dcache.avgBlocked::no_targets          nan                       # average number of cycles each access was blocked ((Cycle/Count))
system.cpu.dcache.writebacks::writebacks         6272                       # number of writebacks (Count)
system.cpu.dcache.writebacks::total              6272                       # number of writebacks (Count)
system.cpu.dcache.demandMshrHits::cpu.data        20600                       # number of demand (read+write) MSHR hits (Count)
system.cpu.dcache.demandMshrHits::total         20600                       # number of demand (read+write) MSHR hits (Count)
system.cpu.dcache.overallMshrHits::cpu.data        20600                       # number of overall MSHR hits (Count)
system.cpu.dcache.overallMshrHits::total        20600                       # number of overall MSHR hits (Count)
system.cpu.dcache.demandMshrMisses::cpu.data         9009                       # number of demand (read+write) MSHR misses (Count)
system.cpu.dcache.demandMshrMisses::total         9009                       # number of demand (read+write) MSHR misses (Count)
system.cpu.dcache.overallMshrMisses::cpu.data         9009                       # number of overall MSHR misses (Count)
system.cpu.dcache.overallMshrMisses::total         9009                       # number of overall MSHR misses (Count)
system.cpu.dcache.demandMshrMissLatency::cpu.data    586208498                       # number of demand (read+write) MSHR miss ticks (Tick)
system.cpu.dcache.demandMshrMissLatency::total    586208498                       # number of demand (read+write) MSHR miss ticks (Tick)
system.cpu.dcache.overallMshrMissLatency::cpu.data    586208498                       # number of overall MSHR miss ticks (Tick)
system.cpu.dcache.overallMshrMissLatency::total    586208498                       # number of overall MSHR miss ticks (Tick)
system.cpu.dcache.demandMshrMissRate::cpu.data     0.001140                       # mshr miss ratio for demand accesses (Ratio)
system.cpu.dcache.demandMshrMissRate::total     0.001140                       # mshr miss ratio for demand accesses (Ratio)
system.cpu.dcache.overallMshrMissRate::cpu.data     0.001140                       # mshr miss ratio for overall accesses (Ratio)
system.cpu.dcache.overallMshrMissRate::total     0.001140                       # mshr miss ratio for overall accesses (Ratio)
system.cpu.dcache.demandAvgMshrMissLatency::cpu.data 65069.208347                       # average overall mshr miss latency ((Cycle/Count))
system.cpu.dcache.demandAvgMshrMissLatency::total 65069.208347                       # average overall mshr miss latency ((Cycle/Count))
system.cpu.dcache.overallAvgMshrMissLatency::cpu.data 65069.208347                       # average overall mshr miss latency ((Cycle/Count))
system.cpu.dcache.overallAvgMshrMissLatency::total 65069.208347                       # average overall mshr miss latency ((Cycle/Count))
system.cpu.dcache.replacements                   8497                       # number of replacements (Count)
system.cpu.dcache.ReadReq.hits::cpu.data      3784094                       # number of ReadReq hits (Count)
system.cpu.dcache.ReadReq.hits::total         3784094                       # number of ReadReq hits (Count)
system.cpu.dcache.ReadReq.misses::cpu.data        26919                       # number of ReadReq misses (Count)
system.cpu.dcache.ReadReq.misses::total         26919                       # number of ReadReq misses (Count)
system.cpu.dcache.ReadReq.missLatency::cpu.data   1438734500                       # number of ReadReq miss ticks (Tick)
system.cpu.dcache.ReadReq.missLatency::total   1438734500                       # number of ReadReq miss ticks (Tick)
system.cpu.dcache.ReadReq.accesses::cpu.data      3811013                       # number of ReadReq accesses(hits+misses) (Count)
system.cpu.dcache.ReadReq.accesses::total      3811013                       # number of ReadReq accesses(hits+misses) (Count)
system.cpu.dcache.ReadReq.missRate::cpu.data     0.007063                       # miss rate for ReadReq accesses (Ratio)
system.cpu.dcache.ReadReq.missRate::total     0.007063                       # miss rate for ReadReq accesses (Ratio)
system.cpu.dcache.ReadReq.avgMissLatency::cpu.data 53446.803373                       # average ReadReq miss latency ((Tick/Count))
system.cpu.dcache.ReadReq.avgMissLatency::total 53446.803373                       # average ReadReq miss latency ((Tick/Count))
system.cpu.dcache.ReadReq.mshrHits::cpu.data        19621                       # number of ReadReq MSHR hits (Count)
system.cpu.dcache.ReadReq.mshrHits::total        19621                       # number of ReadReq MSHR hits (Count)
system.cpu.dcache.ReadReq.mshrMisses::cpu.data         7298                       # number of ReadReq MSHR misses (Count)
system.cpu.dcache.ReadReq.mshrMisses::total         7298                       # number of ReadReq MSHR misses (Count)
system.cpu.dcache.ReadReq.mshrMissLatency::cpu.data    457801500                       # number of ReadReq MSHR miss ticks (Tick)
system.cpu.dcache.ReadReq.mshrMissLatency::total    457801500                       # number of ReadReq MSHR miss ticks (Tick)
system.cpu.dcache.ReadReq.mshrMissRate::cpu.data     0.001915                       # mshr miss rate for ReadReq accesses (Ratio)
system.cpu.dcache.ReadReq.mshrMissRate::total     0.001915                       # mshr miss rate for ReadReq accesses (Ratio)
system.cpu.dcache.ReadReq.avgMshrMissLatency::cpu.data 62729.720471                       # average ReadReq mshr miss latency ((Tick/Count))
system.cpu.dcache.ReadReq.avgMshrMissLatency::total 62729.720471                       # average ReadReq mshr miss latency ((Tick/Count))
system.cpu.dcache.WriteReq.hits::cpu.data      4088339                       # number of WriteReq hits (Count)
system.cpu.dcache.WriteReq.hits::total        4088339                       # number of WriteReq hits (Count)
system.cpu.dcache.WriteReq.misses::cpu.data         2690                       # number of WriteReq misses (Count)
system.cpu.dcache.WriteReq.misses::total         2690                       # number of WriteReq misses (Count)
system.cpu.dcache.WriteReq.missLatency::cpu.data    137109498                       # number of WriteReq miss ticks (Tick)
system.cpu.dcache.WriteReq.missLatency::total    137109498                       # number of WriteReq miss ticks (Tick)
system.cpu.dcache.WriteReq.accesses::cpu.data      4091029                       # number of WriteReq accesses(hits+misses) (Count)
system.cpu.dcache.WriteReq.accesses::total      4091029                       # number of WriteReq accesses(hits+misses) (Count)
system.cpu.dcache.WriteReq.missRate::cpu.data     0.000658                       # miss rate for WriteReq accesses (Ratio)
system.cpu.dcache.WriteReq.missRate::total     0.000658                       # miss rate for WriteReq accesses (Ratio)
system.cpu.dcache.WriteReq.avgMissLatency::cpu.data 50970.073606                       # average WriteReq miss latency ((Tick/Count))
system.cpu.dcache.WriteReq.avgMissLatency::total 50970.073606                       # average WriteReq miss latency ((Tick/Count))
system.cpu.dcache.WriteReq.mshrHits::cpu.data          979                       # number of WriteReq MSHR hits (Count)
system.cpu.dcache.WriteReq.mshrHits::total          979                       # number of WriteReq MSHR hits (Count)
system.cpu.dcache.WriteReq.mshrMisses::cpu.data         1711                       # number of WriteReq MSHR misses (Count)
system.cpu.dcache.WriteReq.mshrMisses::total         1711                       # number of WriteReq MSHR misses (Count)
system.cpu.dcache.WriteReq.mshrMissLatency::cpu.data    128406998                       # number of WriteReq MSHR miss ticks (Tick)
system.cpu.dcache.WriteReq.mshrMissLatency::total    128406998                       # number of WriteReq MSHR miss ticks (Tick)
system.cpu.dcache.WriteReq.mshrMissRate::cpu.data     0.000418                       # mshr miss rate for WriteReq accesses (Ratio)
system.cpu.dcache.WriteReq.mshrMissRate::total     0.000418                       # mshr miss rate for WriteReq accesses (Ratio)
system.cpu.dcache.WriteReq.avgMshrMissLatency::cpu.data 75047.924021                       # average WriteReq mshr miss latency ((Tick/Count))
system.cpu.dcache.WriteReq.avgMshrMissLatency::total 75047.924021                       # average WriteReq mshr miss latency ((Tick/Count))
system.cpu.dcache.power_state.pwrStateResidencyTicks::UNDEFINED   5377773500                       # Cumulative time (in ticks) in various power states (Tick)
system.cpu.dcache.tags.tagsInUse           509.335795                       # Average ticks per tags in use ((Tick/Count))
system.cpu.dcache.tags.totalRefs              7881442                       # Total number of references to valid blocks. (Count)
system.cpu.dcache.tags.sampledRefs               9009                       # Sample count of references to valid blocks. (Count)
system.cpu.dcache.tags.avgRefs             874.840937                       # Average number of references to valid blocks. ((Count/Count))
system.cpu.dcache.tags.warmupTick              168000                       # The tick when the warmup percentage was hit. (Tick)
system.cpu.dcache.tags.occupancies::cpu.data   509.335795                       # Average occupied blocks per tick, per requestor ((Count/Tick))
system.cpu.dcache.tags.avgOccs::cpu.data     0.994796                       # Average percentage of cache occupancy ((Ratio/Tick))
system.cpu.dcache.tags.avgOccs::total        0.994796                       # Average percentage of cache occupancy ((Ratio/Tick))
system.cpu.dcache.tags.occupanciesTaskId::1024          512                       # Occupied blocks per task id (Count)
system.cpu.dcache.tags.ageTaskId_1024::0           48                       # Occupied blocks per task id, per block age (Count)
system.cpu.dcache.tags.ageTaskId_1024::1           13                       # Occupied blocks per task id, per block age (Count)
system.cpu.dcache.tags.ageTaskId_1024::2          451                       # Occupied blocks per task id, per block age (Count)
system.cpu.dcache.tags.ratioOccsTaskId::1024            1                       # Ratio of occupied blocks and all blocks, per task id (Ratio)
system.cpu.dcache.tags.tagAccesses           31617177                       # Number of tag accesses (Count)
system.cpu.dcache.tags.dataAccesses          31617177                       # Number of data accesses (Count)
system.cpu.dcache.tags.power_state.pwrStateResidencyTicks::UNDEFINED   5377773500                       # Cumulative time (in ticks) in various power states (Tick)
system.cpu.decode.idleCycles                  3640778                       # Number of cycles decode is idle (Cycle)
system.cpu.decode.blockedCycles                700114                       # Number of cycles decode is blocked (Cycle)
system.cpu.decode.runCycles                   6208690                       # Number of cycles decode is running (Cycle)
system.cpu.decode.unblockCycles                 86418                       # Number of cycles decode is unblocking (Cycle)
system.cpu.decode.squashCycles                  15247                       # Number of cycles decode is squashing (Cycle)
system.cpu.decode.branchResolved              1374000                       # Number of times decode resolved a branch (Count)
system.cpu.decode.branchMispred                  1618                       # Number of times decode detected a branch misprediction (Count)
system.cpu.decode.decodedInsts               36038996                       # Number of instructions handled by decode (Count)
system.cpu.decode.squashedInsts                  3863                       # Number of squashed instructions handled by decode (Count)
system.cpu.fetch.icacheStallCycles            3710513                       # Number of cycles fetch is stalled on an Icache miss (Cycle)
system.cpu.fetch.insts                       20363053                       # Number of instructions fetch has processed (Count)
system.cpu.fetch.branches                     3381305                       # Number of branches that fetch encountered (Count)
system.cpu.fetch.predictedBranches            2480305                       # Number of branches that fetch has predicted taken (Count)
system.cpu.fetch.cycles                       6920452                       # Number of cycles fetch has run and was not squashing or blocked (Cycle)
system.cpu.fetch.squashCycles                   33706                       # Number of cycles fetch has spent squashing (Cycle)
system.cpu.fetch.miscStallCycles                  416                       # Number of cycles fetch has spent waiting on interrupts, or bad addresses, or out of MSHRs (Cycle)
system.cpu.fetch.pendingTrapStallCycles          2865                       # Number of stall cycles due to pending traps (Cycle)
system.cpu.fetch.pendingQuiesceStallCycles          148                       # Number of stall cycles due to pending quiesce instructions (Cycle)
system.cpu.fetch.cacheLines                   3659931                       # Number of cache lines fetched (Count)
system.cpu.fetch.icacheSquashes                  5336                       # Number of outstanding Icache misses that were squashed (Count)
system.cpu.fetch.nisnDist::samples           10651247                       # Number of instructions fetched each cycle (Total) (Count)
system.cpu.fetch.nisnDist::mean              3.394773                       # Number of instructions fetched each cycle (Total) (Count)
system.cpu.fetch.nisnDist::stdev             3.481257                       # Number of instructions fetched each cycle (Total) (Count)
system.cpu.fetch.nisnDist::underflows               0      0.00%      0.00% # Number of instructions fetched each cycle (Total) (Count)
system.cpu.fetch.nisnDist::0                  4278402     40.17%     40.17% # Number of instructions fetched each cycle (Total) (Count)
system.cpu.fetch.nisnDist::1                  1088210     10.22%     50.38% # Number of instructions fetched each cycle (Total) (Count)
system.cpu.fetch.nisnDist::2                   105296      0.99%     51.37% # Number of instructions fetched each cycle (Total) (Count)
system.cpu.fetch.nisnDist::3                   128690      1.21%     52.58% # Number of instructions fetched each cycle (Total) (Count)
system.cpu.fetch.nisnDist::4                  1095667     10.29%     62.87% # Number of instructions fetched each cycle (Total) (Count)
system.cpu.fetch.nisnDist::5                    96764      0.91%     63.78% # Number of instructions fetched each cycle (Total) (Count)
system.cpu.fetch.nisnDist::6                   584449      5.49%     69.26% # Number of instructions fetched each cycle (Total) (Count)
system.cpu.fetch.nisnDist::7                    89638      0.84%     70.11% # Number of instructions fetched each cycle (Total) (Count)
system.cpu.fetch.nisnDist::8                  3184131     29.89%    100.00% # Number of instructions fetched each cycle (Total) (Count)
system.cpu.fetch.nisnDist::overflows                0      0.00%    100.00% # Number of instructions fetched each cycle (Total) (Count)
system.cpu.fetch.nisnDist::min_value                0                       # Number of instructions fetched each cycle (Total) (Count)
system.cpu.fetch.nisnDist::max_value                8                       # Number of instructions fetched each cycle (Total) (Count)
system.cpu.fetch.nisnDist::total             10651247                       # Number of instructions fetched each cycle (Total) (Count)
system.cpu.fetch.branchRate                  0.314378                       # Number of branch fetches per cycle (Ratio)
system.cpu.fetch.rate                        1.893260                       # Number of inst fetches per cycle ((Count/Cycle))
system.cpu.icache.demandHits::cpu.inst        3658094                       # number of demand (read+write) hits (Count)
system.cpu.icache.demandHits::total           3658094                       # number of demand (read+write) hits (Count)
system.cpu.icache.overallHits::cpu.inst       3658094                       # number of overall hits (Count)
system.cpu.icache.overallHits::total          3658094                       # number of overall hits (Count)
system.cpu.icache.demandMisses::cpu.inst         1837                       # number of demand (read+write) misses (Count)
system.cpu.icache.demandMisses::total            1837                       # number of demand (read+write) misses (Count)
system.cpu.icache.overallMisses::cpu.inst         1837                       # number of overall misses (Count)
system.cpu.icache.overallMisses::total           1837                       # number of overall misses (Count)
system.cpu.icache.demandMissLatency::cpu.inst    133318000                       # number of demand (read+write) miss ticks (Tick)
system.cpu.icache.demandMissLatency::total    133318000                       # number of demand (read+write) miss ticks (Tick)
system.cpu.icache.overallMissLatency::cpu.inst    133318000                       # number of overall miss ticks (Tick)
system.cpu.icache.overallMissLatency::total    133318000                       # number of overall miss ticks (Tick)
system.cpu.icache.demandAccesses::cpu.inst      3659931                       # number of demand (read+write) accesses (Count)
system.cpu.icache.demandAccesses::total       3659931                       # number of demand (read+write) accesses (Count)
system.cpu.icache.overallAccesses::cpu.inst      3659931                       # number of overall (read+write) accesses (Count)
system.cpu.icache.overallAccesses::total      3659931                       # number of overall (read+write) accesses (Count)
system.cpu.icache.demandMissRate::cpu.inst     0.000502                       # miss rate for demand accesses (Ratio)
system.cpu.icache.demandMissRate::total      0.000502                       # miss rate for demand accesses (Ratio)
system.cpu.icache.overallMissRate::cpu.inst     0.000502                       # miss rate for overall accesses (Ratio)
system.cpu.icache.overallMissRate::total     0.000502                       # miss rate for overall accesses (Ratio)
system.cpu.icache.demandAvgMissLatency::cpu.inst 72573.761568                       # average overall miss latency ((Cycle/Count))
system.cpu.icache.demandAvgMissLatency::total 72573.761568                       # average overall miss latency ((Cycle/Count))
system.cpu.icache.overallAvgMissLatency::cpu.inst 72573.761568                       # average overall miss latency ((Cycle/Count))
system.cpu.icache.overallAvgMissLatency::total 72573.761568                       # average overall miss latency ((Cycle/Count))
system.cpu.icache.blockedCycles::no_mshrs          204                       # number of cycles access was blocked (Cycle)
system.cpu.icache.blockedCycles::no_targets            0                       # number of cycles access was blocked (Cycle)
system.cpu.icache.blockedCauses::no_mshrs            4                       # number of times access was blocked (Count)
system.cpu.icache.blockedCauses::no_targets            0                       # number of times access was blocked (Count)
system.cpu.icache.avgBlocked::no_mshrs             51                       # average number of cycles each access was blocked ((Cycle/Count))
system.cpu.icache.avgBlocked::no_targets          nan                       # average number of cycles each access was blocked ((Cycle/Count))
system.cpu.icache.demandMshrHits::cpu.inst          444                       # number of demand (read+write) MSHR hits (Count)
system.cpu.icache.demandMshrHits::total           444                       # number of demand (read+write) MSHR hits (Count)
system.cpu.icache.overallMshrHits::cpu.inst          444                       # number of overall MSHR hits (Count)
system.cpu.icache.overallMshrHits::total          444                       # number of overall MSHR hits (Count)
system.cpu.icache.demandMshrMisses::cpu.inst         1393                       # number of demand (read+write) MSHR misses (Count)
system.cpu.icache.demandMshrMisses::total         1393                       # number of demand (read+write) MSHR misses (Count)
system.cpu.icache.overallMshrMisses::cpu.inst         1393                       # number of overall MSHR misses (Count)
system.cpu.icache.overallMshrMisses::total         1393                       # number of overall MSHR misses (Count)
system.cpu.icache.demandMshrMissLatency::cpu.inst    105008500                       # number of demand (read+write) MSHR miss ticks (Tick)
system.cpu.icache.demandMshrMissLatency::total    105008500                       # number of demand (read+write) MSHR miss ticks (Tick)
system.cpu.icache.overallMshrMissLatency::cpu.inst    105008500                       # number of overall MSHR miss ticks (Tick)
system.cpu.icache.overallMshrMissLatency::total    105008500                       # number of overall MSHR miss ticks (Tick)
system.cpu.icache.demandMshrMissRate::cpu.inst     0.000381                       # mshr miss ratio for demand accesses (Ratio)
system.cpu.icache.demandMshrMissRate::total     0.000381                       # mshr miss ratio for demand accesses (Ratio)
system.cpu.icache.overallMshrMissRate::cpu.inst     0.000381                       # mshr miss ratio for overall accesses (Ratio)
system.cpu.icache.overallMshrMissRate::total     0.000381                       # mshr miss ratio for overall accesses (Ratio)
system.cpu.icache.demandAvgMshrMissLatency::cpu.inst 75382.986360                       # average overall mshr miss latency ((Cycle/Count))
system.cpu.icache.demandAvgMshrMissLatency::total 75382.986360                       # average overall mshr miss latency ((Cycle/Count))
system.cpu.icache.overallAvgMshrMissLatency::cpu.inst 75382.986360                       # average overall mshr miss latency ((Cycle/Count))
system.cpu.icache.overallAvgMshrMissLatency::total 75382.986360                       # average overall mshr miss latency ((Cycle/Count))
system.cpu.icache.replacements                    880                       # number of replacements (Count)
system.cpu.icache.ReadReq.hits::cpu.inst      3658094                       # number of ReadReq hits (Count)
system.cpu.icache.ReadReq.hits::total         3658094                       # number of ReadReq hits (Count)
system.cpu.icache.ReadReq.misses::cpu.inst         1837                       # number of ReadReq misses (Count)
system.cpu.icache.ReadReq.misses::total          1837                       # number of ReadReq misses (Count)
system.cpu.icache.ReadReq.missLatency::cpu.inst    133318000                       # number of ReadReq miss ticks (Tick)
system.cpu.icache.ReadReq.missLatency::total    133318000                       # number of ReadReq miss ticks (Tick)
system.cpu.icache.ReadReq.accesses::cpu.inst      3659931                       # number of ReadReq accesses(hits+misses) (Count)
system.cpu.icache.ReadReq.accesses::total      3659931                       # number of ReadReq accesses(hits+misses) (Count)
system.cpu.icache.ReadReq.missRate::cpu.inst     0.000502                       # miss rate for ReadReq accesses (Ratio)
system.cpu.icache.ReadReq.missRate::total     0.000502                       # miss rate for ReadReq accesses (Ratio)
system.cpu.icache.ReadReq.avgMissLatency::cpu.inst 72573.761568                       # average ReadReq miss latency ((Tick/Count))
system.cpu.icache.ReadReq.avgMissLatency::total 72573.761568                       # average ReadReq miss latency ((Tick/Count))
system.cpu.icache.ReadReq.mshrHits::cpu.inst          444                       # number of ReadReq MSHR hits (Count)
system.cpu.icache.ReadReq.mshrHits::total          444                       # number of ReadReq MSHR hits (Count)
system.cpu.icache.ReadReq.mshrMisses::cpu.inst         1393                       # number of ReadReq MSHR misses (Count)
system.cpu.icache.ReadReq.mshrMisses::total         1393                       # number of ReadReq MSHR misses (Count)
system.cpu.icache.ReadReq.mshrMissLatency::cpu.inst    105008500                       # number of ReadReq MSHR miss ticks (Tick)
system.cpu.icache.ReadReq.mshrMissLatency::total    105008500                       # number of ReadReq MSHR miss ticks (Tick)
system.cpu.icache.ReadReq.mshrMissRate::cpu.inst     0.000381                       # mshr miss rate for ReadReq accesses (Ratio)
system.cpu.icache.ReadReq.mshrMissRate::total     0.000381                       # mshr miss rate for ReadReq accesses (Ratio)
system.cpu.icache.ReadReq.avgMshrMissLatency::cpu.inst 75382.986360                       # average ReadReq mshr miss latency ((Tick/Count))
system.cpu.icache.ReadReq.avgMshrMissLatency::total 75382.986360                       # average ReadReq mshr miss latency ((Tick/Count))
system.cpu.icache.power_state.pwrStateResidencyTicks::UNDEFINED   5377773500                       # Cumulative time (in ticks) in various power states (Tick)
system.cpu.icache.tags.tagsInUse           506.617062                       # Average ticks per tags in use ((Tick/Count))
system.cpu.icache.tags.totalRefs              3659486                       # Total number of references to valid blocks. (Count)
system.cpu.icache.tags.sampledRefs               1392                       # Sample count of references to valid blocks. (Count)
system.cpu.icache.tags.avgRefs            2628.941092                       # Average number of references to valid blocks. ((Count/Count))
system.cpu.icache.tags.warmupTick               82000                       # The tick when the warmup percentage was hit. (Tick)
system.cpu.icache.tags.occupancies::cpu.inst   506.617062                       # Average occupied blocks per tick, per requestor ((Count/Tick))
system.cpu.icache.tags.avgOccs::cpu.inst     0.989486                       # Average percentage of cache occupancy ((Ratio/Tick))
system.cpu.icache.tags.avgOccs::total        0.989486                       # Average percentage of cache occupancy ((Ratio/Tick))
system.cpu.icache.tags.occupanciesTaskId::1024          512                       # Occupied blocks per task id (Count)
system.cpu.icache.tags.ageTaskId_1024::0           98                       # Occupied blocks per task id, per block age (Count)
system.cpu.icache.tags.ageTaskId_1024::2          294                       # Occupied blocks per task id, per block age (Count)
system.cpu.icache.tags.ageTaskId_1024::3          120                       # Occupied blocks per task id, per block age (Count)
system.cpu.icache.tags.ratioOccsTaskId::1024            1                       # Ratio of occupied blocks and all blocks, per task id (Ratio)
system.cpu.icache.tags.tagAccesses           14641116                       # Number of tag accesses (Count)
system.cpu.icache.tags.dataAccesses          14641116                       # Number of data accesses (Count)
system.cpu.icache.tags.power_state.pwrStateResidencyTicks::UNDEFINED   5377773500                       # Cumulative time (in ticks) in various power states (Tick)
system.cpu.iew.idleCycles                           0                       # Number of cycles IEW is idle (Cycle)
system.cpu.iew.squashCycles                     15247                       # Number of cycles IEW is squashing (Cycle)
system.cpu.iew.blockCycles                     251281                       # Number of cycles IEW is blocking (Cycle)
system.cpu.iew.unblockCycles                    10087                       # Number of cycles IEW is unblocking (Cycle)
system.cpu.iew.dispatchedInsts               35862438                       # Number of instructions dispatched to IQ (Count)
system.cpu.iew.dispSquashedInsts                  394                       # Number of squashed instructions skipped by dispatch (Count)
system.cpu.iew.dispLoadInsts                  8057613                       # Number of dispatched load instructions (Count)
system.cpu.iew.dispStoreInsts                 4112979                       # Number of dispatched store instructions (Count)
system.cpu.iew.dispNonSpecInsts                    35                       # Number of dispatched non-speculative instructions (Count)
system.cpu.iew.iqFullEvents                      2679                       # Number of times the IQ has become full, causing a stall (Count)
system.cpu.iew.lsqFullEvents                     6617                       # Number of times the LSQ has become full, causing a stall (Count)
system.cpu.iew.memOrderViolationEvents            525                       # Number of memory order violations (Count)
system.cpu.iew.predictedTakenIncorrect           5129                       # Number of branches that were predicted taken incorrectly (Count)
system.cpu.iew.predictedNotTakenIncorrect         9513                       # Number of branches that were predicted not taken incorrectly (Count)
system.cpu.iew.branchMispredicts                14642                       # Number of branch mispredicts detected at execute (Count)
system.cpu.iew.instsToCommit                 35668663                       # Cumulative count of insts sent to commit (Count)
system.cpu.iew.writebackCount                35662514                       # Cumulative count of insts written-back (Count)
system.cpu.iew.producerInst                  22833023                       # Number of instructions producing a value (Count)
system.cpu.iew.consumerInst                  30378134                       # Number of instructions consuming a value (Count)
system.cpu.iew.wbRate                        3.315732                       # Insts written-back per cycle ((Count/Cycle))
system.cpu.iew.wbFanout                      0.751627                       # Average fanout of values written-back ((Count/Count))
system.cpu.interrupts.clk_domain.clock           8000                       # Clock period in ticks (Tick)
system.cpu.l2cache.demandHits::cpu.inst            35                       # number of demand (read+write) hits (Count)
system.cpu.l2cache.demandHits::cpu.data          1797                       # number of demand (read+write) hits (Count)
system.cpu.l2cache.demandHits::total             1832                       # number of demand (read+write) hits (Count)
system.cpu.l2cache.overallHits::cpu.inst           35                       # number of overall hits (Count)
system.cpu.l2cache.overallHits::cpu.data         1797                       # number of overall hits (Count)
system.cpu.l2cache.overallHits::total            1832                       # number of overall hits (Count)
system.cpu.l2cache.demandMisses::cpu.inst         1358                       # number of demand (read+write) misses (Count)
system.cpu.l2cache.demandMisses::cpu.data         7212                       # number of demand (read+write) misses (Count)
system.cpu.l2cache.demandMisses::total           8570                       # number of demand (read+write) misses (Count)
system.cpu.l2cache.overallMisses::cpu.inst         1358                       # number of overall misses (Count)
system.cpu.l2cache.overallMisses::cpu.data         7212                       # number of overall misses (Count)
system.cpu.l2cache.overallMisses::total          8570                       # number of overall misses (Count)
system.cpu.l2cache.demandMissLatency::cpu.inst    102547000                       # number of demand (read+write) miss ticks (Tick)
system.cpu.l2cache.demandMissLatency::cpu.data    553720500                       # number of demand (read+write) miss ticks (Tick)
system.cpu.l2cache.demandMissLatency::total    656267500                       # number of demand (read+write) miss ticks (Tick)
system.cpu.l2cache.overallMissLatency::cpu.inst    102547000                       # number of overall miss ticks (Tick)
system.cpu.l2cache.overallMissLatency::cpu.data    553720500                       # number of overall miss ticks (Tick)
system.cpu.l2cache.overallMissLatency::total    656267500                       # number of overall miss ticks (Tick)
system.cpu.l2cache.demandAccesses::cpu.inst         1393                       # number of demand (read+write) accesses (Count)
system.cpu.l2cache.demandAccesses::cpu.data         9009                       # number of demand (read+write) accesses (Count)
system.cpu.l2cache.demandAccesses::total        10402                       # number of demand (read+write) accesses (Count)
system.cpu.l2cache.overallAccesses::cpu.inst         1393                       # number of overall (read+write) accesses (Count)
system.cpu.l2cache.overallAccesses::cpu.data         9009                       # number of overall (read+write) accesses (Count)
system.cpu.l2cache.overallAccesses::total        10402                       # number of overall (read+write) accesses (Count)
system.cpu.l2cache.demandMissRate::cpu.inst     0.974874                       # miss rate for demand accesses (Ratio)
system.cpu.l2cache.demandMissRate::cpu.data     0.800533                       # miss rate for demand accesses (Ratio)
system.cpu.l2cache.demandMissRate::total     0.823880                       # miss rate for demand accesses (Ratio)
system.cpu.l2cache.overallMissRate::cpu.inst     0.974874                       # miss rate for overall accesses (Ratio)
system.cpu.l2cache.overallMissRate::cpu.data     0.800533                       # miss rate for overall accesses (Ratio)
system.cpu.l2cache.overallMissRate::total     0.823880                       # miss rate for overall accesses (Ratio)
system.cpu.l2cache.demandAvgMissLatency::cpu.inst 75513.254786                       # average overall miss latency ((Cycle/Count))
system.cpu.l2cache.demandAvgMissLatency::cpu.data 76777.662230                       # average overall miss latency ((Cycle/Count))
system.cpu.l2cache.demandAvgMissLatency::total 76577.304551                       # average overall miss latency ((Cycle/Count))
system.cpu.l2cache.overallAvgMissLatency::cpu.inst 75513.254786                       # average overall miss latency ((Cycle/Count))
system.cpu.l2cache.overallAvgMissLatency::cpu.data 76777.662230                       # average overall miss latency ((Cycle/Count))
system.cpu.l2cache.overallAvgMissLatency::total 76577.304551                       # average overall miss latency ((Cycle/Count))
system.cpu.l2cache.blockedCycles::no_mshrs            0                       # number of cycles access was blocked (Cycle)
system.cpu.l2cache.blockedCycles::no_targets            0                       # number of cycles access was blocked (Cycle)
system.cpu.l2cache.blockedCauses::no_mshrs            0                       # number of times access was blocked (Count)
system.cpu.l2cache.blockedCauses::no_targets            0                       # number of times access was blocked (Count)
system.cpu.l2cache.avgBlocked::no_mshrs           nan                       # average number of cycles each access was blocked ((Cycle/Count))
system.cpu.l2cache.avgBlocked::no_targets          nan                       # average number of cycles each access was blocked ((Cycle/Count))
system.cpu.l2cache.writebacks::writebacks         4317                       # number of writebacks (Count)
system.cpu.l2cache.writebacks::total             4317                       # number of writebacks (Count)
system.cpu.l2cache.demandMshrMisses::cpu.inst         1358                       # number of demand (read+write) MSHR misses (Count)
system.cpu.l2cache.demandMshrMisses::cpu.data         7212                       # number of demand (read+write) MSHR misses (Count)
system.cpu.l2cache.demandMshrMisses::total         8570                       # number of demand (read+write) MSHR misses (Count)
system.cpu.l2cache.overallMshrMisses::cpu.inst         1358                       # number of overall MSHR misses (Count)
system.cpu.l2cache.overallMshrMisses::cpu.data         7212                       # number of overall MSHR misses (Count)
system.cpu.l2cache.overallMshrMisses::total         8570                       # number of overall MSHR misses (Count)
system.cpu.l2cache.demandMshrMissLatency::cpu.inst     88977000                       # number of demand (read+write) MSHR miss ticks (Tick)
system.cpu.l2cache.demandMshrMissLatency::cpu.data    481600500                       # number of demand (read+write) MSHR miss ticks (Tick)
system.cpu.l2cache.demandMshrMissLatency::total    570577500                       # number of demand (read+write) MSHR miss ticks (Tick)
system.cpu.l2cache.overallMshrMissLatency::cpu.inst     88977000                       # number of overall MSHR miss ticks (Tick)
system.cpu.l2cache.overallMshrMissLatency::cpu.data    481600500                       # number of overall MSHR miss ticks (Tick)
system.cpu.l2cache.overallMshrMissLatency::total    570577500                       # number of overall MSHR miss ticks (Tick)
system.cpu.l2cache.demandMshrMissRate::cpu.inst     0.974874                       # mshr miss ratio for demand accesses (Ratio)
system.cpu.l2cache.demandMshrMissRate::cpu.data     0.800533                       # mshr miss ratio for demand accesses (Ratio)
system.cpu.l2cache.demandMshrMissRate::total     0.823880                       # mshr miss ratio for demand accesses (Ratio)
[...]
system.mem_ctrl.dram.bytesWritten::total       276288                       # Number of bytes written to this memory (Byte)
system.mem_ctrl.dram.numReads::cpu.inst          1357                       # Number of read requests responded to by this memory (Count)
system.mem_ctrl.dram.numReads::cpu.data          7212                       # Number of read requests responded to by this memory (Count)
system.mem_ctrl.dram.numReads::total             8569                       # Number of read requests responded to by this memory (Count)
system.mem_ctrl.dram.numWrites::writebacks         4317                       # Number of write requests responded to by this memory (Count)
system.mem_ctrl.dram.numWrites::total            4317                       # Number of write requests responded to by this memory (Count)
system.mem_ctrl.dram.bwRead::cpu.inst        16149434                       # Total read bandwidth from this memory ((Byte/Second))
system.mem_ctrl.dram.bwRead::cpu.data        85828829                       # Total read bandwidth from this memory ((Byte/Second))
system.mem_ctrl.dram.bwRead::total          101978263                       # Total read bandwidth from this memory ((Byte/Second))
system.mem_ctrl.dram.bwInstRead::cpu.inst     16149434                       # Instruction read bandwidth from this memory ((Byte/Second))
system.mem_ctrl.dram.bwInstRead::total       16149434                       # Instruction read bandwidth from this memory ((Byte/Second))
system.mem_ctrl.dram.bwWrite::writebacks     51375909                       # Write bandwidth from this memory ((Byte/Second))
system.mem_ctrl.dram.bwWrite::total          51375909                       # Write bandwidth from this memory ((Byte/Second))
system.mem_ctrl.dram.bwTotal::writebacks     51375909                       # Total bandwidth to/from this memory ((Byte/Second))
system.mem_ctrl.dram.bwTotal::cpu.inst       16149434                       # Total bandwidth to/from this memory ((Byte/Second))
system.mem_ctrl.dram.bwTotal::cpu.data       85828829                       # Total bandwidth to/from this memory ((Byte/Second))
system.mem_ctrl.dram.bwTotal::total         153354172                       # Total bandwidth to/from this memory ((Byte/Second))
system.mem_ctrl.dram.readBursts                  8557                       # Number of DRAM read bursts (Count)
system.mem_ctrl.dram.writeBursts                 4299                       # Number of DRAM write bursts (Count)
system.mem_ctrl.dram.perBankRdBursts::0           716                       # Per bank write bursts (Count)
system.mem_ctrl.dram.perBankRdBursts::1           690                       # Per bank write bursts (Count)
system.mem_ctrl.dram.perBankRdBursts::2           945                       # Per bank write bursts (Count)
system.mem_ctrl.dram.perBankRdBursts::3           568                       # Per bank write bursts (Count)
system.mem_ctrl.dram.perBankRdBursts::4           545                       # Per bank write bursts (Count)
system.mem_ctrl.dram.perBankRdBursts::5           378                       # Per bank write bursts (Count)
system.mem_ctrl.dram.perBankRdBursts::6           345                       # Per bank write bursts (Count)
system.mem_ctrl.dram.perBankRdBursts::7           319                       # Per bank write bursts (Count)
system.mem_ctrl.dram.perBankRdBursts::8           356                       # Per bank write bursts (Count)
system.mem_ctrl.dram.perBankRdBursts::9           462                       # Per bank write bursts (Count)
system.mem_ctrl.dram.perBankRdBursts::10          592                       # Per bank write bursts (Count)
system.mem_ctrl.dram.perBankRdBursts::11          507                       # Per bank write bursts (Count)
system.mem_ctrl.dram.perBankRdBursts::12          412                       # Per bank write bursts (Count)
system.mem_ctrl.dram.perBankRdBursts::13          521                       # Per bank write bursts (Count)
system.mem_ctrl.dram.perBankRdBursts::14          534                       # Per bank write bursts (Count)
system.mem_ctrl.dram.perBankRdBursts::15          667                       # Per bank write bursts (Count)
system.mem_ctrl.dram.perBankWrBursts::0           459                       # Per bank write bursts (Count)
system.mem_ctrl.dram.perBankWrBursts::1           375                       # Per bank write bursts (Count)
system.mem_ctrl.dram.perBankWrBursts::2           553                       # Per bank write bursts (Count)
system.mem_ctrl.dram.perBankWrBursts::3           319                       # Per bank write bursts (Count)
system.mem_ctrl.dram.perBankWrBursts::4           270                       # Per bank write bursts (Count)
system.mem_ctrl.dram.perBankWrBursts::5           129                       # Per bank write bursts (Count)
system.mem_ctrl.dram.perBankWrBursts::6           183                       # Per bank write bursts (Count)
system.mem_ctrl.dram.perBankWrBursts::7           128                       # Per bank write bursts (Count)
system.mem_ctrl.dram.perBankWrBursts::8           132                       # Per bank write bursts (Count)
system.mem_ctrl.dram.perBankWrBursts::9           187                       # Per bank write bursts (Count)
system.mem_ctrl.dram.perBankWrBursts::10          246                       # Per bank write bursts (Count)
system.mem_ctrl.dram.perBankWrBursts::11          201                       # Per bank write bursts (Count)
system.mem_ctrl.dram.perBankWrBursts::12          128                       # Per bank write bursts (Count)
system.mem_ctrl.dram.perBankWrBursts::13          305                       # Per bank write bursts (Count)
system.mem_ctrl.dram.perBankWrBursts::14          308                       # Per bank write bursts (Count)
system.mem_ctrl.dram.perBankWrBursts::15          376                       # Per bank write bursts (Count)
system.mem_ctrl.dram.totQLat                104444750                       # Total ticks spent queuing (Tick)
system.mem_ctrl.dram.totBusLat               42785000                       # Total ticks spent in databus transfers (Tick)
system.mem_ctrl.dram.totMemAccLat           264888500                       # Total ticks spent from burst creation until serviced by the DRAM (Tick)
system.mem_ctrl.dram.avgQLat                 12205.77                       # Average queueing delay per DRAM burst ((Tick/Count))
system.mem_ctrl.dram.avgBusLat                5000.00                       # Average bus latency per DRAM burst ((Tick/Count))
system.mem_ctrl.dram.avgMemAccLat            30955.77                       # Average memory access latency per DRAM burst ((Tick/Count))
system.mem_ctrl.dram.readRowHits                 7066                       # Number of row buffer hits during reads (Count)
system.mem_ctrl.dram.writeRowHits                3788                       # Number of row buffer hits during writes (Count)
system.mem_ctrl.dram.readRowHitRate             82.58                       # Row buffer hit rate for reads (Ratio)
system.mem_ctrl.dram.writeRowHitRate            88.11                       # Row buffer hit rate for writes (Ratio)
system.mem_ctrl.dram.bytesPerActivate::samples         1988                       # Bytes accessed per row activation (Byte)
system.mem_ctrl.dram.bytesPerActivate::mean   412.265594                       # Bytes accessed per row activation (Byte)
system.mem_ctrl.dram.bytesPerActivate::gmean   276.390009                       # Bytes accessed per row activation (Byte)
system.mem_ctrl.dram.bytesPerActivate::stdev   342.638699                       # Bytes accessed per row activation (Byte)
system.mem_ctrl.dram.bytesPerActivate::0-127          343     17.25%     17.25% # Bytes accessed per row activation (Byte)
system.mem_ctrl.dram.bytesPerActivate::128-255          581     29.23%     46.48% # Bytes accessed per row activation (Byte)
system.mem_ctrl.dram.bytesPerActivate::256-383          159      8.00%     54.48% # Bytes accessed per row activation (Byte)
system.mem_ctrl.dram.bytesPerActivate::384-511          269     13.53%     68.01% # Bytes accessed per row activation (Byte)
system.mem_ctrl.dram.bytesPerActivate::512-639          126      6.34%     74.35% # Bytes accessed per row activation (Byte)
system.mem_ctrl.dram.bytesPerActivate::640-767           70      3.52%     77.87% # Bytes accessed per row activation (Byte)
system.mem_ctrl.dram.bytesPerActivate::768-895           52      2.62%     80.48% # Bytes accessed per row activation (Byte)
system.mem_ctrl.dram.bytesPerActivate::896-1023           71      3.57%     84.05% # Bytes accessed per row activation (Byte)
system.mem_ctrl.dram.bytesPerActivate::1024-1151          317     15.95%    100.00% # Bytes accessed per row activation (Byte)
system.mem_ctrl.dram.bytesPerActivate::total         1988                       # Bytes accessed per row activation (Byte)
system.mem_ctrl.dram.bytesRead                 547648                       # Total bytes read (Byte)
system.mem_ctrl.dram.bytesWritten              275136                       # Total bytes written (Byte)
system.mem_ctrl.dram.avgRdBW               101.835453                       # Average DRAM read bandwidth in MiBytes/s ((Byte/Second))
system.mem_ctrl.dram.avgWrBW                51.161694                       # Average DRAM write bandwidth in MiBytes/s ((Byte/Second))
system.mem_ctrl.dram.peakBW                  12800.00                       # Theoretical peak bandwidth in MiByte/s ((Byte/Second))
system.mem_ctrl.dram.busUtil                     1.20                       # Data bus utilization in percentage (Ratio)
system.mem_ctrl.dram.busUtilRead                 0.80                       # Data bus utilization in percentage for reads (Ratio)
system.mem_ctrl.dram.busUtilWrite                0.40                       # Data bus utilization in percentage for writes (Ratio)
system.mem_ctrl.dram.pageHitRate                84.43                       # Row buffer hit rate, read and write combined (Ratio)
system.mem_ctrl.dram.power_state.pwrStateResidencyTicks::UNDEFINED   5377773500                       # Cumulative time (in ticks) in various power states (Tick)
system.mem_ctrl.dram.rank0.actEnergy          7789740                       # Energy for activate commands per rank (pJ) (Joule)
system.mem_ctrl.dram.rank0.preEnergy          4113780                       # Energy for precharge commands per rank (pJ) (Joule)
system.mem_ctrl.dram.rank0.readEnergy        32172840                       # Energy for read commands per rank (pJ) (Joule)
system.mem_ctrl.dram.rank0.writeEnergy       12611520                       # Energy for write commands per rank (pJ) (Joule)
system.mem_ctrl.dram.rank0.refreshEnergy 424101600.000000                       # Energy for refresh commands per rank (pJ) (Joule)
system.mem_ctrl.dram.rank0.actBackEnergy   1072255500                       # Energy for active background per rank (pJ) (Joule)
system.mem_ctrl.dram.rank0.preBackEnergy   1162113120                       # Energy for precharge background per rank (pJ) (Joule)
system.mem_ctrl.dram.rank0.actPowerDownEnergy            0                       # Energy for active power-down per rank (pJ) (Joule)
system.mem_ctrl.dram.rank0.prePowerDownEnergy            0                       # Energy for precharge power-down per rank (pJ) (Joule)
system.mem_ctrl.dram.rank0.selfRefreshEnergy            0                       # Energy for self refresh per rank (pJ) (Joule)
system.mem_ctrl.dram.rank0.totalEnergy     2715158100                       # Total energy per rank (pJ) (Joule)
system.mem_ctrl.dram.rank0.averagePower    504.885172                       # Core power per rank (mW) (Watt)
system.mem_ctrl.dram.rank0.totalIdleTime            0                       # Total Idle time Per DRAM Rank (Tick)
system.mem_ctrl.dram.rank0.pwrStateTime::IDLE   3010009500                       # Time in different power states (Tick)
system.mem_ctrl.dram.rank0.pwrStateTime::REF    179400000                       # Time in different power states (Tick)
system.mem_ctrl.dram.rank0.pwrStateTime::SREF            0                       # Time in different power states (Tick)
system.mem_ctrl.dram.rank0.pwrStateTime::PRE_PDN            0                       # Time in different power states (Tick)
system.mem_ctrl.dram.rank0.pwrStateTime::ACT   2188364000                       # Time in different power states (Tick)
system.mem_ctrl.dram.rank0.pwrStateTime::ACT_PDN            0                       # Time in different power states (Tick)
system.mem_ctrl.dram.rank1.actEnergy          6504540                       # Energy for activate commands per rank (pJ) (Joule)
system.mem_ctrl.dram.rank1.preEnergy          3430680                       # Energy for precharge commands per rank (pJ) (Joule)
system.mem_ctrl.dram.rank1.readEnergy        28924140                       # Energy for read commands per rank (pJ) (Joule)
system.mem_ctrl.dram.rank1.writeEnergy        9829260                       # Energy for write commands per rank (pJ) (Joule)
system.mem_ctrl.dram.rank1.refreshEnergy 424101600.000000                       # Energy for refresh commands per rank (pJ) (Joule)
system.mem_ctrl.dram.rank1.actBackEnergy    828899700                       # Energy for active background per rank (pJ) (Joule)
system.mem_ctrl.dram.rank1.preBackEnergy   1367044320                       # Energy for precharge background per rank (pJ) (Joule)
system.mem_ctrl.dram.rank1.actPowerDownEnergy            0                       # Energy for active power-down per rank (pJ) (Joule)
system.mem_ctrl.dram.rank1.prePowerDownEnergy            0                       # Energy for precharge power-down per rank (pJ) (Joule)
system.mem_ctrl.dram.rank1.selfRefreshEnergy            0                       # Energy for self refresh per rank (pJ) (Joule)
system.mem_ctrl.dram.rank1.totalEnergy     2668734240                       # Total energy per rank (pJ) (Joule)
system.mem_ctrl.dram.rank1.averagePower    496.252629                       # Core power per rank (mW) (Watt)
system.mem_ctrl.dram.rank1.totalIdleTime            0                       # Total Idle time Per DRAM Rank (Tick)
system.mem_ctrl.dram.rank1.pwrStateTime::IDLE   3544842250                       # Time in different power states (Tick)
system.mem_ctrl.dram.rank1.pwrStateTime::REF    179400000                       # Time in different power states (Tick)
system.mem_ctrl.dram.rank1.pwrStateTime::SREF            0                       # Time in different power states (Tick)
system.mem_ctrl.dram.rank1.pwrStateTime::PRE_PDN            0                       # Time in different power states (Tick)
system.mem_ctrl.dram.rank1.pwrStateTime::ACT   1653531250                       # Time in different power states (Tick)
system.mem_ctrl.dram.rank1.pwrStateTime::ACT_PDN            0                       # Time in different power states (Tick)
system.mem_ctrl.power_state.pwrStateResidencyTicks::UNDEFINED   5377773500                       # Cumulative time (in ticks) in various power states (Tick)
system.membus.transDist::ReadResp                6905                       # Transaction distribution (Count)
system.membus.transDist::WritebackDirty          4317                       # Transaction distribution (Count)
system.membus.transDist::CleanEvict              1974                       # Transaction distribution (Count)
system.membus.transDist::ReadExReq               1664                       # Transaction distribution (Count)
system.membus.transDist::ReadExResp              1664                       # Transaction distribution (Count)
system.membus.transDist::ReadSharedReq           6905                       # Transaction distribution (Count)
system.membus.pktCount_system.cpu.l2cache.mem_side_port::system.mem_ctrl.port        23429                       # Packet count per connected requestor and responder (Count)
system.membus.pktCount_system.cpu.l2cache.mem_side_port::total        23429                       # Packet count per connected requestor and responder (Count)
system.membus.pktCount::total                   23429                       # Packet count per connected requestor and responder (Count)
system.membus.pktSize_system.cpu.l2cache.mem_side_port::system.mem_ctrl.port       824704                       # Cumulative packet size per connected requestor and responder (Byte)
system.membus.pktSize_system.cpu.l2cache.mem_side_port::total       824704                       # Cumulative packet size per connected requestor and responder (Byte)
system.membus.pktSize::total                   824704                       # Cumulative packet size per connected requestor and responder (Byte)
system.membus.snoops                                0                       # Total snoops (Count)
system.membus.snoopTraffic                          0                       # Total snoop traffic (Byte)
system.membus.snoopFanout::samples               8569                       # Request fanout histogram (Count)
system.membus.snoopFanout::mean                     0                       # Request fanout histogram (Count)
system.membus.snoopFanout::stdev                    0                       # Request fanout histogram (Count)
system.membus.snoopFanout::underflows               0      0.00%      0.00% # Request fanout histogram (Count)
system.membus.snoopFanout::0                     8569    100.00%    100.00% # Request fanout histogram (Count)
system.membus.snoopFanout::1                        0      0.00%    100.00% # Request fanout histogram (Count)
system.membus.snoopFanout::overflows                0      0.00%    100.00% # Request fanout histogram (Count)
system.membus.snoopFanout::min_value                0                       # Request fanout histogram (Count)
system.membus.snoopFanout::max_value                0                       # Request fanout histogram (Count)
system.membus.snoopFanout::total                 8569                       # Request fanout histogram (Count)
system.membus.power_state.pwrStateResidencyTicks::UNDEFINED   5377773500                       # Cumulative time (in ticks) in various power states (Tick)
system.membus.reqLayer2.occupancy            16064000                       # Layer occupancy (ticks) (Tick)
system.membus.reqLayer2.utilization               0.0                       # Layer utilization (Ratio)
system.membus.respLayer0.occupancy           23006000                       # Layer occupancy (ticks) (Tick)
system.membus.respLayer0.utilization              0.0                       # Layer utilization (Ratio)
system.membus.snoop_filter.totRequests          14860                       # Total number of requests made to the snoop filter. (Count)
system.membus.snoop_filter.hitSingleRequests         6293                       # Number of requests hitting in the snoop filter with a single holder of the requested data. (Count)
system.membus.snoop_filter.hitMultiRequests            0                       # Number of requests hitting in the snoop filter with multiple (>1) holders of the requested data. (Count)
system.membus.snoop_filter.totSnoops                0                       # Total number of snoops made to the snoop filter. (Count)
system.membus.snoop_filter.hitSingleSnoops            0                       # Number of snoops hitting in the snoop filter with a single holder of the requested data. (Count)
system.membus.snoop_filter.hitMultiSnoops            0                       # Number of snoops hitting in the snoop filter with multiple (>1) holders of the requested data. (Count)
system.workload.inst.arm                            0                       # number of arm instructions executed (Count)
system.workload.inst.quiesce                        0                       # number of quiesce instructions executed (Count)

---------- End Simulation Statistics   ----------
