
---------- Begin Simulation Statistics ----------
simSeconds                                   0.005562                       # Number of seconds simulated (Second)
simTicks                                   5561816500                       # Number of ticks simulated (Tick)
finalTick                                  5561816500                       # Number of ticks from beginning of simulation (restored from checkpoints and never reset) (Tick)
simFreq                                  1000000000000                       # The number of ticks per simulated second ((Tick/Second))
hostSeconds                                    136.15                       # Real time elapsed on the host (Second)
hostTickRate                                 40851946                       # The number of ticks simulated per host second (ticks/s) ((Tick/Second))
hostMemory                                    1199780                       # Number of bytes of host memory used (Byte)
simInsts                                     19928450                       # Number of instructions simulated (Count)
simOps                                       35336477                       # Number of ops (including micro ops) simulated (Count)
hostInstRate                                   146376                       # Simulator instruction rate (inst/s) ((Count/Second))
hostOpRate                                     259549                       # Simulator op (including micro ops) rate (op/s) ((Count/Second))
system.clk_domain.clock                           500                       # Clock period in ticks (Tick)
system.clk_domain.voltage_domain.voltage            1                       # Voltage in Volts (Volt)
system.cpu.numCycles                         11123634                       # Number of cpu cycles simulated (Cycle)
system.cpu.numWorkItemsStarted                      0                       # Number of work items this cpu started (Count)
system.cpu.numWorkItemsCompleted                    0                       # Number of work items this cpu completed (Count)
system.cpu.instsAdded                        36912464                       # Number of instructions added to the IQ (excludes non-spec) (Count)
system.cpu.nonSpecInstsAdded                       36                       # Number of non-speculative instructions added to the IQ (Count)
system.cpu.instsIssued                       36517397                       # Number of instructions issued (Count)
system.cpu.squashedInstsIssued                   3068                       # Number of squashed instructions issued (Count)
system.cpu.squashedInstsExamined              1576017                       # Number of squashed instructions iterated over during squash; mainly for profiling (Count)
system.cpu.squashedOperandsExamined           1806769                       # Number of squashed operands that are examined and possibly removed from graph (Count)
system.cpu.squashedNonSpecRemoved                  18                       # Number of squashed non-spec instructions that were removed (Count)
system.cpu.numIssuedDist::samples            11026167                       # Number of insts issued each cycle (Count)
system.cpu.numIssuedDist::mean               3.311885                       # Number of insts issued each cycle (Count)
system.cpu.numIssuedDist::stdev              1.973143                       # Number of insts issued each cycle (Count)
system.cpu.numIssuedDist::underflows                0      0.00%      0.00% # Number of insts issued each cycle (Count)
system.cpu.numIssuedDist::0                    947697      8.59%      8.59% # Number of insts issued each cycle (Count)
system.cpu.numIssuedDist::1                   1257730     11.41%     20.00% # Number of insts issued each cycle (Count)
system.cpu.numIssuedDist::2                    900086      8.16%     28.16% # Number of insts issued each cycle (Count)
system.cpu.numIssuedDist::3                   3586409     32.53%     60.69% # Number of insts issued each cycle (Count)
system.cpu.numIssuedDist::4                   1779183     16.14%     76.83% # Number of insts issued each cycle (Count)
system.cpu.numIssuedDist::5                   1003643      9.10%     85.93% # Number of insts issued each cycle (Count)
system.cpu.numIssuedDist::6                    787710      7.14%     93.07% # Number of insts issued each cycle (Count)
system.cpu.numIssuedDist::7                    270611      2.45%     95.53% # Number of insts issued each cycle (Count)
system.cpu.numIssuedDist::8                    493098      4.47%    100.00% # Number of insts issued each cycle (Count)
system.cpu.numIssuedDist::overflows                 0      0.00%    100.00% # Number of insts issued each cycle (Count)
system.cpu.numIssuedDist::min_value                 0                       # Number of insts issued each cycle (Count)
system.cpu.numIssuedDist::max_value                 8                       # Number of insts issued each cycle (Count)
system.cpu.numIssuedDist::total              11026167                       # Number of insts issued each cycle (Count)
system.cpu.statFuBusy::No_OpClass                   0      0.00%      0.00% # attempts to use FU when none available (Count)
system.cpu.statFuBusy::IntAlu                  569733     95.02%     95.02% # attempts to use FU when none available (Count)
system.cpu.statFuBusy::IntMult                      0      0.00%     95.02% # attempts to use FU when none available (Count)
system.cpu.statFuBusy::IntDiv                       0      0.00%     95.02% # attempts to use FU when none available (Count)
system.cpu.statFuBusy::FloatAdd                     0      0.00%     95.02% # attempts to use FU when none available (Count)
system.cpu.statFuBusy::FloatCmp                     0      0.00%     95.02% # attempts to use FU when none available (Count)
system.cpu.statFuBusy::FloatCvt                     0      0.00%     95.02% # attempts to use FU when none available (Count)
system.cpu.statFuBusy::FloatMult                    0      0.00%     95.02% # attempts to use FU when none available (Count)
system.cpu.statFuBusy::FloatMultAcc                 0      0.00%     95.02% # attempts to use FU when none available (Count)
system.cpu.statFuBusy::FloatDiv                     0      0.00%     95.02% # attempts to use FU when none available (Count)
system.cpu.statFuBusy::FloatMisc                    0      0.00%     95.02% # attempts to use FU when none available (Count)
system.cpu.statFuBusy::FloatSqrt                    0      0.00%     95.02% # attempts to use FU when none available (Count)
system.cpu.statFuBusy::SimdAdd                      0      0.00%     95.02% # attempts to use FU when none available (Count)
system.cpu.statFuBusy::SimdAddAcc                   0      0.00%     95.02% # attempts to use FU when none available (Count)
system.cpu.statFuBusy::SimdAlu                   1017      0.17%     95.19% # attempts to use FU when none available (Count)
system.cpu.statFuBusy::SimdCmp                      0      0.00%     95.19% # attempts to use FU when none available (Count)
system.cpu.statFuBusy::SimdCvt                     21      0.00%     95.20% # attempts to use FU when none available (Count)
system.cpu.statFuBusy::SimdMisc                    10      0.00%     95.20% # attempts to use FU when none available (Count)
system.cpu.statFuBusy::SimdMult                     0      0.00%     95.20% # attempts to use FU when none available (Count)
system.cpu.statFuBusy::SimdMultAcc                  0      0.00%     95.20% # attempts to use FU when none available (Count)
system.cpu.statFuBusy::SimdShift                    0      0.00%     95.20% # attempts to use FU when none available (Count)
system.cpu.statFuBusy::SimdShiftAcc                 0      0.00%     95.20% # attempts to use FU when none available (Count)
system.cpu.statFuBusy::SimdDiv                      0      0.00%     95.20% # attempts to use FU when none available (Count)
system.cpu.statFuBusy::SimdSqrt                     0      0.00%     95.20% # attempts to use FU when none available (Count)
system.cpu.statFuBusy::SimdFloatAdd                 0      0.00%     95.20% # attempts to use FU when none available (Count)
system.cpu.statFuBusy::SimdFloatAlu                 0      0.00%     95.20% # attempts to use FU when none available (Count)
system.cpu.statFuBusy::SimdFloatCmp                 0      0.00%     95.20% # attempts to use FU when none available (Count)
system.cpu.statFuBusy::SimdFloatCvt                 0      0.00%     95.20% # attempts to use FU when none available (Count)
system.cpu.statFuBusy::SimdFloatDiv                 0      0.00%     95.20% # attempts to use FU when none available (Count)
system.cpu.statFuBusy::SimdFloatMisc                0      0.00%     95.20% # attempts to use FU when none available (Count)
system.cpu.statFuBusy::SimdFloatMult                0      0.00%     95.20% # attempts to use FU when none available (Count)
system.cpu.statFuBusy::SimdFloatMultAcc             0      0.00%     95.20% # attempts to use FU when none available (Count)
system.cpu.statFuBusy::SimdFloatSqrt                0      0.00%     95.20% # attempts to use FU when none available (Count)
system.cpu.statFuBusy::SimdReduceAdd                0      0.00%     95.20% # attempts to use FU when none available (Count)
system.cpu.statFuBusy::SimdReduceAlu                0      0.00%     95.20% # attempts to use FU when none available (Count)
system.cpu.statFuBusy::SimdReduceCmp                0      0.00%     95.20% # attempts to use FU when none available (Count)
system.cpu.statFuBusy::SimdFloatReduceAdd            0      0.00%     95.20% # attempts to use FU when none available (Count)
system.cpu.statFuBusy::SimdFloatReduceCmp            0      0.00%     95.20% # attempts to use FU when none available (Count)
system.cpu.statFuBusy::SimdAes                      0      0.00%     95.20% # attempts to use FU when none available (Count)
system.cpu.statFuBusy::SimdAesMix                   0      0.00%     95.20% # attempts to use FU when none available (Count)
system.cpu.statFuBusy::SimdSha1Hash                 0      0.00%     95.20% # attempts to use FU when none available (Count)
system.cpu.statFuBusy::SimdSha1Hash2                0      0.00%     95.20% # attempts to use FU when none available (Count)
system.cpu.statFuBusy::SimdSha256Hash               0      0.00%     95.20% # attempts to use FU when none available (Count)
system.cpu.statFuBusy::SimdSha256Hash2              0      0.00%     95.20% # attempts to use FU when none available (Count)
system.cpu.statFuBusy::SimdShaSigma2                0      0.00%     95.20% # attempts to use FU when none available (Count)
system.cpu.statFuBusy::SimdShaSigma3                0      0.00%     95.20% # attempts to use FU when none available (Count)
system.cpu.statFuBusy::SimdPredAlu                  0      0.00%     95.20% # attempts to use FU when none available (Count)
system.cpu.statFuBusy::MemRead                  18474      3.08%     98.28% # attempts to use FU when none available (Count)
system.cpu.statFuBusy::MemWrite                  4379      0.73%     99.01% # attempts to use FU when none available (Count)
system.cpu.statFuBusy::FloatMemRead              1105      0.18%     99.19% # attempts to use FU when none available (Count)
system.cpu.statFuBusy::FloatMemWrite             4827      0.81%    100.00% # attempts to use FU when none available (Count)
system.cpu.statFuBusy::IprAccess                    0      0.00%    100.00% # attempts to use FU when none available (Count)
system.cpu.statFuBusy::InstPrefetch                 0      0.00%    100.00% # attempts to use FU when none available (Count)
system.cpu.statIssuedInstType_0::No_OpClass       631508      1.73%      1.73% # Number of instructions issued per FU type, per thread (Count)
system.cpu.statIssuedInstType_0::IntAlu      20877974     57.17%     58.90% # Number of instructions issued per FU type, per thread (Count)
system.cpu.statIssuedInstType_0::IntMult       521077      1.43%     60.33% # Number of instructions issued per FU type, per thread (Count)
system.cpu.statIssuedInstType_0::IntDiv         55973      0.15%     60.48% # Number of instructions issued per FU type, per thread (Count)
system.cpu.statIssuedInstType_0::FloatAdd      1527200      4.18%     64.66% # Number of instructions issued per FU type, per thread (Count)
system.cpu.statIssuedInstType_0::FloatCmp            0      0.00%     64.66% # Number of instructions issued per FU type, per thread (Count)
system.cpu.statIssuedInstType_0::FloatCvt           32      0.00%     64.66% # Number of instructions issued per FU type, per thread (Count)
system.cpu.statIssuedInstType_0::FloatMult            0      0.00%     64.66% # Number of instructions issued per FU type, per thread (Count)
system.cpu.statIssuedInstType_0::FloatMultAcc            0      0.00%     64.66% # Number of instructions issued per FU type, per thread (Count)
system.cpu.statIssuedInstType_0::FloatDiv            0      0.00%     64.66% # Number of instructions issued per FU type, per thread (Count)
system.cpu.statIssuedInstType_0::FloatMisc            0      0.00%     64.66% # Number of instructions issued per FU type, per thread (Count)
system.cpu.statIssuedInstType_0::FloatSqrt            0      0.00%     64.66% # Number of instructions issued per FU type, per thread (Count)
system.cpu.statIssuedInstType_0::SimdAdd          440      0.00%     64.67% # Number of instructions issued per FU type, per thread (Count)
system.cpu.statIssuedInstType_0::SimdAddAcc            0      0.00%     64.67% # Number of instructions issued per FU type, per thread (Count)
system.cpu.statIssuedInstType_0::SimdAlu        19010      0.05%     64.72% # Number of instructions issued per FU type, per thread (Count)
system.cpu.statIssuedInstType_0::SimdCmp            8      0.00%     64.72% # Number of instructions issued per FU type, per thread (Count)
system.cpu.statIssuedInstType_0::SimdCvt        11058      0.03%     64.75% # Number of instructions issued per FU type, per thread (Count)
system.cpu.statIssuedInstType_0::SimdMisc        24981      0.07%     64.82% # Number of instructions issued per FU type, per thread (Count)
system.cpu.statIssuedInstType_0::SimdMult            0      0.00%     64.82% # Number of instructions issued per FU type, per thread (Count)
system.cpu.statIssuedInstType_0::SimdMultAcc            0      0.00%     64.82% # Number of instructions issued per FU type, per thread (Count)
system.cpu.statIssuedInstType_0::SimdShift          302      0.00%     64.82% # Number of instructions issued per FU type, per thread (Count)
system.cpu.statIssuedInstType_0::SimdShiftAcc            0      0.00%     64.82% # Number of instructions issued per FU type, per thread (Count)
system.cpu.statIssuedInstType_0::SimdDiv            0      0.00%     64.82% # Number of instructions issued per FU type, per thread (Count)
system.cpu.statIssuedInstType_0::SimdSqrt            0      0.00%     64.82% # Number of instructions issued per FU type, per thread (Count)
system.cpu.statIssuedInstType_0::SimdFloatAdd            0      0.00%     64.82% # Number of instructions issued per FU type, per thread (Count)
system.cpu.statIssuedInstType_0::SimdFloatAlu            0      0.00%     64.82% # Number of instructions issued per FU type, per thread (Count)
system.cpu.statIssuedInstType_0::SimdFloatCmp            0      0.00%     64.82% # Number of instructions issued per FU type, per thread (Count)
system.cpu.statIssuedInstType_0::SimdFloatCvt       509597      1.40%     66.21% # Number of instructions issued per FU type, per thread (Count)
system.cpu.statIssuedInstType_0::SimdFloatDiv            0      0.00%     66.21% # Number of instructions issued per FU type, per thread (Count)
system.cpu.statIssuedInstType_0::SimdFloatMisc            0      0.00%     66.21% # Number of instructions issued per FU type, per thread (Count)
system.cpu.statIssuedInstType_0::SimdFloatMult            0      0.00%     66.21% # Number of instructions issued per FU type, per thread (Count)
system.cpu.statIssuedInstType_0::SimdFloatMultAcc            0      0.00%     66.21% # Number of instructions issued per FU type, per thread (Count)
system.cpu.statIssuedInstType_0::SimdFloatSqrt            0      0.00%     66.21% # Number of instructions issued per FU type, per thread (Count)
system.cpu.statIssuedInstType_0::SimdReduceAdd            0      0.00%     66.21% # Number of instructions issued per FU type, per thread (Count)
system.cpu.statIssuedInstType_0::SimdReduceAlu            0      0.00%     66.21% # Number of instructions issued per FU type, per thread (Count)
system.cpu.statIssuedInstType_0::SimdReduceCmp            0      0.00%     66.21% # Number of instructions issued per FU type, per thread (Count)
system.cpu.statIssuedInstType_0::SimdFloatReduceAdd            0      0.00%     66.21% # Number of instructions issued per FU type, per thread (Count)
system.cpu.statIssuedInstType_0::SimdFloatReduceCmp            0      0.00%     66.21% # Number of instructions issued per FU type, per thread (Count)
system.cpu.statIssuedInstType_0::SimdAes            0      0.00%     66.21% # Number of instructions issued per FU type, per thread (Count)
system.cpu.statIssuedInstType_0::SimdAesMix            0      0.00%     66.21% # Number of instructions issued per FU type, per thread (Count)
system.cpu.statIssuedInstType_0::SimdSha1Hash            0      0.00%     66.21% # Number of instructions issued per FU type, per thread (Count)
system.cpu.statIssuedInstType_0::SimdSha1Hash2            0      0.00%     66.21% # Number of instructions issued per FU type, per thread (Count)
system.cpu.statIssuedInstType_0::SimdSha256Hash            0      0.00%     66.21% # Number of instructions issued per FU type, per thread (Count)
system.cpu.statIssuedInstType_0::SimdSha256Hash2            0      0.00%     66.21% # Number of instructions issued per FU type, per thread (Count)
system.cpu.statIssuedInstType_0::SimdShaSigma2            0      0.00%     66.21% # Number of instructions issued per FU type, per thread (Count)
system.cpu.statIssuedInstType_0::SimdShaSigma3            0      0.00%     66.21% # Number of instructions issued per FU type, per thread (Count)
system.cpu.statIssuedInstType_0::SimdPredAlu            0      0.00%     66.21% # Number of instructions issued per FU type, per thread (Count)
system.cpu.statIssuedInstType_0::MemRead      6122580     16.77%     82.98% # Number of instructions issued per FU type, per thread (Count)
system.cpu.statIssuedInstType_0::MemWrite      3121209      8.55%     91.53% # Number of instructions issued per FU type, per thread (Count)
system.cpu.statIssuedInstType_0::FloatMemRead      2062061      5.65%     97.17% # Number of instructions issued per FU type, per thread (Count)
system.cpu.statIssuedInstType_0::FloatMemWrite      1032387      2.83%    100.00% # Number of instructions issued per FU type, per thread (Count)
system.cpu.statIssuedInstType_0::IprAccess            0      0.00%    100.00% # Number of instructions issued per FU type, per thread (Count)
system.cpu.statIssuedInstType_0::InstPrefetch            0      0.00%    100.00% # Number of instructions issued per FU type, per thread (Count)
system.cpu.statIssuedInstType_0::total       36517397                       # Number of instructions issued per FU type, per thread (Count)
system.cpu.issueRate                         3.282866                       # Inst issue rate ((Count/Cycle))
system.cpu.fuBusy                              599566                       # FU busy when requested (Count)
system.cpu.fuBusyRate                        0.016419                       # FU busy rate (busy events/executed inst) ((Count/Count))
system.cpu.intInstQueueReads                 74265791                       # Number of integer instruction queue reads (Count)
system.cpu.intInstQueueWrites                33195547                       # Number of integer instruction queue writes (Count)
system.cpu.intInstQueueWakeupAccesses        31155336                       # Number of integer instruction queue wakeup accesses (Count)
system.cpu.fpInstQueueReads                  10397804                       # Number of floating instruction queue reads (Count)
system.cpu.fpInstQueueWrites                  5293468                       # Number of floating instruction queue writes (Count)
system.cpu.fpInstQueueWakeupAccesses          5171019                       # Number of floating instruction queue wakeup accesses (Count)
system.cpu.vecInstQueueReads                        0                       # Number of vector instruction queue reads (Count)
system.cpu.vecInstQueueWrites                       0                       # Number of vector instruction queue writes (Count)
system.cpu.vecInstQueueWakeupAccesses               0                       # Number of vector instruction queue wakeup accesses (Count)
system.cpu.intAluAccesses                    31283075                       # Number of integer alu accesses (Count)
system.cpu.fpAluAccesses                      5202380                       # Number of floating point alu accesses (Count)
system.cpu.vecAluAccesses                           0                       # Number of vector alu accesses (Count)
system.cpu.numInsts                          36397438                       # Number of executed instructions (Count)
system.cpu.numLoadInsts                       8159656                       # Number of load instructions executed (Count)
system.cpu.numSquashedInsts                    119959                       # Number of squashed instructions skipped in execute (Count)
system.cpu.numSwp                                   0                       # Number of swp insts executed (Count)
system.cpu.numNop                                   0                       # Number of nop insts executed (Count)
system.cpu.numRefs                           12303401                       # Number of memory reference insts executed (Count)
system.cpu.numBranches                        3371866                       # Number of branches executed (Count)
system.cpu.numStoreInsts                      4143745                       # Number of stores executed (Count)
system.cpu.numRate                           3.272082                       # Inst execution rate ((Count/Cycle))
system.cpu.timesIdled                             936                       # Number of times that the entire CPU went into an idle state and unscheduled itself (Count)
system.cpu.idleCycles                           97467                       # Total number of cycles that the CPU has spent unscheduled due to idling (Cycle)
system.cpu.committedInsts                    19928450                       # Number of Instructions Simulated (Count)
system.cpu.committedOps                      35336477                       # Number of Ops (including micro ops) Simulated (Count)
system.cpu.cpi                               0.558179                       # CPI: Cycles Per Instruction ((Cycle/Count))
system.cpu.totalCpi                          0.558179                       # CPI: Total CPI of All Threads ((Cycle/Count))
system.cpu.ipc                               1.791541                       # IPC: Instructions Per Cycle ((Count/Cycle))
system.cpu.totalIpc                          1.791541                       # IPC: Total IPC of All Threads ((Count/Cycle))
system.cpu.intRegfileReads                   56640072                       # Number of integer regfile reads (Count)
system.cpu.intRegfileWrites                  24700166                       # Number of integer regfile writes (Count)
system.cpu.fpRegfileReads                     2182375                       # Number of floating regfile reads (Count)
system.cpu.fpRegfileWrites                    3621552                       # Number of floating regfile writes (Count)
system.cpu.ccRegfileReads                    10589094                       # number of cc regfile reads (Count)
system.cpu.ccRegfileWrites                    6033799                       # number of cc regfile writes (Count)
system.cpu.miscRegfileReads                  18553525                       # number of misc regfile reads (Count)
system.cpu.miscRegfileWrites                       18                       # number of misc regfile writes (Count)
system.cpu.MemDepUnit__0.insertedLoads        8222471                       # Number of loads inserted to the mem dependence unit. (Count)
system.cpu.MemDepUnit__0.insertedStores       4191281                       # Number of stores inserted to the mem dependence unit. (Count)
system.cpu.MemDepUnit__0.conflictingLoads      2588981                       # Number of conflicting loads. (Count)
system.cpu.MemDepUnit__0.conflictingStores       585994                       # Number of conflicting stores. (Count)
system.cpu.MemDepUnit__1.insertedLoads              0                       # Number of loads inserted to the mem dependence unit. (Count)
system.cpu.MemDepUnit__1.insertedStores             0                       # Number of stores inserted to the mem dependence unit. (Count)
system.cpu.MemDepUnit__1.conflictingLoads            0                       # Number of conflicting loads. (Count)
system.cpu.MemDepUnit__1.conflictingStores            0                       # Number of conflicting stores. (Count)
system.cpu.MemDepUnit__2.insertedLoads              0                       # Number of loads inserted to the mem dependence unit. (Count)
system.cpu.MemDepUnit__2.insertedStores             0                       # Number of stores inserted to the mem dependence unit. (Count)
system.cpu.MemDepUnit__2.conflictingLoads            0                       # Number of conflicting loads. (Count)
system.cpu.MemDepUnit__2.conflictingStores            0                       # Number of conflicting stores. (Count)
system.cpu.MemDepUnit__3.insertedLoads              0                       # Number of loads inserted to the mem dependence unit. (Count)
system.cpu.MemDepUnit__3.insertedStores             0                       # Number of stores inserted to the mem dependence unit. (Count)
system.cpu.MemDepUnit__3.conflictingLoads            0                       # Number of conflicting loads. (Count)
system.cpu.MemDepUnit__3.conflictingStores            0                       # Number of conflicting stores. (Count)
system.cpu.branchPred.lookups                 3568498                       # Number of BP lookups (Count)
system.cpu.branchPred.condPredicted           1753740                       # Number of conditional branches predicted (Count)
system.cpu.branchPred.condIncorrect             48642                       # Number of conditional branches incorrect (Count)
system.cpu.branchPred.BTBLookups              1464650                       # Number of BTB lookups (Count)
system.cpu.branchPred.BTBHits                 1452090                       # Number of BTB hits (Count)
system.cpu.branchPred.BTBHitRatio            0.991425                       # BTB Hit Ratio (Ratio)
system.cpu.branchPred.RASUsed                  592725                       # Number of times the RAS was used to get a target. (Count)
system.cpu.branchPred.RASIncorrect                989                       # Number of incorrect RAS predictions. (Count)
system.cpu.branchPred.indirectLookups          559993                       # Number of indirect predictor lookups. (Count)
system.cpu.branchPred.indirectHits             533632                       # Number of indirect target hits. (Count)
system.cpu.branchPred.indirectMisses            26361                       # Number of indirect misses. (Count)
system.cpu.branchPred.indirectMispredicted          300                       # Number of mispredicted indirect branches. (Count)
system.cpu.commit.commitSquashedInsts         1544842                       # The number of squashed insts skipped by commit (Count)
system.cpu.commit.commitNonSpecStalls              18                       # The number of times commit has been forced to stall to communicate backwards (Count)
system.cpu.commit.branchMispredicts             48259                       # The number of times a branch was mispredicted (Count)
system.cpu.commit.numCommittedDist::samples     10804649                       # Number of insts commited each cycle (Count)
system.cpu.commit.numCommittedDist::mean     3.270488                       # Number of insts commited each cycle (Count)
system.cpu.commit.numCommittedDist::stdev     3.108410                       # Number of insts commited each cycle (Count)
system.cpu.commit.numCommittedDist::underflows            0      0.00%      0.00% # Number of insts commited each cycle (Count)
system.cpu.commit.numCommittedDist::0         3048314     28.21%     28.21% # Number of insts commited each cycle (Count)
system.cpu.commit.numCommittedDist::1          824450      7.63%     35.84% # Number of insts commited each cycle (Count)
system.cpu.commit.numCommittedDist::2         1864323     17.25%     53.10% # Number of insts commited each cycle (Count)
system.cpu.commit.numCommittedDist::3         1286361     11.91%     65.00% # Number of insts commited each cycle (Count)
system.cpu.commit.numCommittedDist::4          609364      5.64%     70.64% # Number of insts commited each cycle (Count)
system.cpu.commit.numCommittedDist::5           92794      0.86%     71.50% # Number of insts commited each cycle (Count)
system.cpu.commit.numCommittedDist::6           59494      0.55%     72.05% # Number of insts commited each cycle (Count)
system.cpu.commit.numCommittedDist::7          490484      4.54%     76.59% # Number of insts commited each cycle (Count)
system.cpu.commit.numCommittedDist::8         2529065     23.41%    100.00% # Number of insts commited each cycle (Count)
system.cpu.commit.numCommittedDist::overflows            0      0.00%    100.00% # Number of insts commited each cycle (Count)
system.cpu.commit.numCommittedDist::min_value            0                       # Number of insts commited each cycle (Count)
system.cpu.commit.numCommittedDist::max_value            8                       # Number of insts commited each cycle (Count)
system.cpu.commit.numCommittedDist::total     10804649                       # Number of insts commited each cycle (Count)
system.cpu.commit.instsCommitted             19928450                       # Number of instructions committed (Count)
system.cpu.commit.opsCommitted               35336477                       # Number of ops (including micro ops) committed (Count)
system.cpu.commit.memRefs                    12069539                       # Number of memory references committed (Count)
system.cpu.commit.loads                       7978510                       # Number of loads committed (Count)
system.cpu.commit.amos                              0                       # Number of atomic instructions committed (Count)
system.cpu.commit.membars                           0                       # Number of memory barriers committed (Count)
system.cpu.commit.branches                    3283692                       # Number of branches committed (Count)
system.cpu.commit.vectorInstructions                0                       # Number of committed Vector instructions. (Count)
system.cpu.commit.floating                    5154398                       # Number of committed floating point instructions. (Count)
system.cpu.commit.integer                    32657360                       # Number of committed integer instructions. (Count)
system.cpu.commit.functionCalls                563369                       # Number of function calls committed. (Count)
system.cpu.commit.committedInstType_0::No_OpClass       589130      1.67%      1.67% # Class of committed instruction (Count)
system.cpu.commit.committedInstType_0::IntAlu     20030633     56.69%     58.35% # Class of committed instruction (Count)
system.cpu.commit.committedInstType_0::IntMult       516165      1.46%     59.81% # Class of committed instruction (Count)
system.cpu.commit.committedInstType_0::IntDiv        53994      0.15%     59.97% # Class of committed instruction (Count)
system.cpu.commit.committedInstType_0::FloatAdd      1513865      4.28%     64.25% # Class of committed instruction (Count)
system.cpu.commit.committedInstType_0::FloatCmp            0      0.00%     64.25% # Class of committed instruction (Count)
system.cpu.commit.committedInstType_0::FloatCvt           32      0.00%     64.25% # Class of committed instruction (Count)
system.cpu.commit.committedInstType_0::FloatMult            0      0.00%     64.25% # Class of committed instruction (Count)
system.cpu.commit.committedInstType_0::FloatMultAcc            0      0.00%     64.25% # Class of committed instruction (Count)
system.cpu.commit.committedInstType_0::FloatDiv            0      0.00%     64.25% # Class of committed instruction (Count)
system.cpu.commit.committedInstType_0::FloatMisc            0      0.00%     64.25% # Class of committed instruction (Count)
system.cpu.commit.committedInstType_0::FloatSqrt            0      0.00%     64.25% # Class of committed instruction (Count)
system.cpu.commit.committedInstType_0::SimdAdd          326      0.00%     64.25% # Class of committed instruction (Count)
system.cpu.commit.committedInstType_0::SimdAddAcc            0      0.00%     64.25% # Class of committed instruction (Count)
system.cpu.commit.committedInstType_0::SimdAlu        18662      0.05%     64.30% # Class of committed instruction (Count)
system.cpu.commit.committedInstType_0::SimdCmp            6      0.00%     64.30% # Class of committed instruction (Count)
system.cpu.commit.committedInstType_0::SimdCvt        10720      0.03%     64.33% # Class of committed instruction (Count)
system.cpu.commit.committedInstType_0::SimdMisc        24821      0.07%     64.40% # Class of committed instruction (Count)
system.cpu.commit.committedInstType_0::SimdMult            0      0.00%     64.40% # Class of committed instruction (Count)
system.cpu.commit.committedInstType_0::SimdMultAcc            0      0.00%     64.40% # Class of committed instruction (Count)
system.cpu.commit.committedInstType_0::SimdShift           90      0.00%     64.40% # Class of committed instruction (Count)
system.cpu.commit.committedInstType_0::SimdShiftAcc            0      0.00%     64.40% # Class of committed instruction (Count)
system.cpu.commit.committedInstType_0::SimdDiv            0      0.00%     64.40% # Class of committed instruction (Count)
system.cpu.commit.committedInstType_0::SimdSqrt            0      0.00%     64.40% # Class of committed instruction (Count)
system.cpu.commit.committedInstType_0::SimdFloatAdd            0      0.00%     64.40% # Class of committed instruction (Count)
system.cpu.commit.committedInstType_0::SimdFloatAlu            0      0.00%     64.40% # Class of committed instruction (Count)
system.cpu.commit.committedInstType_0::SimdFloatCmp            0      0.00%     64.40% # Class of committed instruction (Count)
system.cpu.commit.committedInstType_0::SimdFloatCvt       508494      1.44%     65.84% # Class of committed instruction (Count)
system.cpu.commit.committedInstType_0::SimdFloatDiv            0      0.00%     65.84% # Class of committed instruction (Count)
system.cpu.commit.committedInstType_0::SimdFloatMisc            0      0.00%     65.84% # Class of committed instruction (Count)
system.cpu.commit.committedInstType_0::SimdFloatMult            0      0.00%     65.84% # Class of committed instruction (Count)
system.cpu.commit.committedInstType_0::SimdFloatMultAcc            0      0.00%     65.84% # Class of committed instruction (Count)
system.cpu.commit.committedInstType_0::SimdFloatSqrt            0      0.00%     65.84% # Class of committed instruction (Count)
system.cpu.commit.committedInstType_0::SimdReduceAdd            0      0.00%     65.84% # Class of committed instruction (Count)
system.cpu.commit.committedInstType_0::SimdReduceAlu            0      0.00%     65.84% # Class of committed instruction (Count)
system.cpu.commit.committedInstType_0::SimdReduceCmp            0      0.00%     65.84% # Class of committed instruction (Count)
system.cpu.commit.committedInstType_0::SimdFloatReduceAdd            0      0.00%     65.84% # Class of committed instruction (Count)
system.cpu.commit.committedInstType_0::SimdFloatReduceCmp            0      0.00%     65.84% # Class of committed instruction (Count)
system.cpu.commit.committedInstType_0::SimdAes            0      0.00%     65.84% # Class of committed instruction (Count)
system.cpu.commit.committedInstType_0::SimdAesMix            0      0.00%     65.84% # Class of committed instruction (Count)
system.cpu.commit.committedInstType_0::SimdSha1Hash            0      0.00%     65.84% # Class of committed instruction (Count)
system.cpu.commit.committedInstType_0::SimdSha1Hash2            0      0.00%     65.84% # Class of committed instruction (Count)
system.cpu.commit.committedInstType_0::SimdSha256Hash            0      0.00%     65.84% # Class of committed instruction (Count)
system.cpu.commit.committedInstType_0::SimdSha256Hash2            0      0.00%     65.84% # Class of committed instruction (Count)
system.cpu.commit.committedInstType_0::SimdShaSigma2            0      0.00%     65.84% # Class of committed instruction (Count)
system.cpu.commit.committedInstType_0::SimdShaSigma3            0      0.00%     65.84% # Class of committed instruction (Count)
system.cpu.commit.committedInstType_0::SimdPredAlu            0      0.00%     65.84% # Class of committed instruction (Count)
system.cpu.commit.committedInstType_0::MemRead      5941599     16.81%     82.66% # Class of committed instruction (Count)
system.cpu.commit.committedInstType_0::MemWrite      3058838      8.66%     91.31% # Class of committed instruction (Count)
system.cpu.commit.committedInstType_0::FloatMemRead      2036911      5.76%     97.08% # Class of committed instruction (Count)
system.cpu.commit.committedInstType_0::FloatMemWrite      1032191      2.92%    100.00% # Class of committed instruction (Count)
system.cpu.commit.committedInstType_0::IprAccess            0      0.00%    100.00% # Class of committed instruction (Count)
system.cpu.commit.committedInstType_0::InstPrefetch            0      0.00%    100.00% # Class of committed instruction (Count)
system.cpu.commit.committedInstType_0::total     35336477                       # Class of committed instruction (Count)
system.cpu.commit.commitEligibleSamples       2529065                       # number cycles where commit BW limit reached (Cycle)
system.cpu.dcache.demandHits::cpu.data        8007862                       # number of demand (read+write) hits (Count)
system.cpu.dcache.demandHits::total           8007862                       # number of demand (read+write) hits (Count)
system.cpu.dcache.overallHits::cpu.data       8007862                       # number of overall hits (Count)
system.cpu.dcache.overallHits::total          8007862                       # number of overall hits (Count)
system.cpu.dcache.demandMisses::cpu.data        34896                       # number of demand (read+write) misses (Count)
system.cpu.dcache.demandMisses::total           34896                       # number of demand (read+write) misses (Count)
system.cpu.dcache.overallMisses::cpu.data        34896                       # number of overall misses (Count)
system.cpu.dcache.overallMisses::total          34896                       # number of overall misses (Count)
system.cpu.dcache.demandMissLatency::cpu.data   1293350998                       # number of demand (read+write) miss ticks (Tick)
system.cpu.dcache.demandMissLatency::total   1293350998                       # number of demand (read+write) miss ticks (Tick)
system.cpu.dcache.overallMissLatency::cpu.data   1293350998                       # number of overall miss ticks (Tick)
system.cpu.dcache.overallMissLatency::total   1293350998                       # number of overall miss ticks (Tick)
system.cpu.dcache.demandAccesses::cpu.data      8042758                       # number of demand (read+write) accesses (Count)
system.cpu.dcache.demandAccesses::total       8042758                       # number of demand (read+write) accesses (Count)
system.cpu.dcache.overallAccesses::cpu.data      8042758                       # number of overall (read+write) accesses (Count)
system.cpu.dcache.overallAccesses::total      8042758                       # number of overall (read+write) accesses (Count)
system.cpu.dcache.demandMissRate::cpu.data     0.004339                       # miss rate for demand accesses (Ratio)
system.cpu.dcache.demandMissRate::total      0.004339                       # miss rate for demand accesses (Ratio)
system.cpu.dcache.overallMissRate::cpu.data     0.004339                       # miss rate for overall accesses (Ratio)
system.cpu.dcache.overallMissRate::total     0.004339                       # miss rate for overall accesses (Ratio)
system.cpu.dcache.demandAvgMissLatency::cpu.data 37063.015761                       # average overall miss latency ((Cycle/Count))
system.cpu.dcache.demandAvgMissLatency::total 37063.015761                       # average overall miss latency ((Cycle/Count))
system.cpu.dcache.overallAvgMissLatency::cpu.data 37063.015761                       # average overall miss latency ((Cycle/Count))
system.cpu.dcache.overallAvgMissLatency::total 37063.015761                       # average overall miss latency ((Cycle/Count))
system.cpu.dcache.blockedCycles::no_mshrs        17638                       # number of cycles access was blocked (Cycle)
system.cpu.dcache.blockedCycles::no_targets            0                       # number of cycles access was blocked (Cycle)
system.cpu.dcache.blockedCauses::no_mshrs          365                       # number of times access was blocked (Count)
system.cpu.dcache.blockedCauses::no_targets            0                       # number of times access was blocked (Count)
system.cpu.dcache.avgBlocked::no_mshrs      48.323288                       # average number of cycles each access was blocked ((Cycle/Count))
system.cpu.dcache.avgBlocked::no_targets          nan                       # average number of cycles each access was blocked ((Cycle/Count))
system.cpu.dcache.writebacks::writebacks         9406                       # number of writebacks (Count)
system.cpu.dcache.writebacks::total              9406                       # number of writebacks (Count)
system.cpu.dcache.demandMshrHits::cpu.data        20660                       # number of demand (read+write) MSHR hits (Count)
system.cpu.dcache.demandMshrHits::total         20660                       # number of demand (read+write) MSHR hits (Count)
system.cpu.dcache.overallMshrHits::cpu.data        20660                       # number of overall MSHR hits (Count)
system.cpu.dcache.overallMshrHits::total        20660                       # number of overall MSHR hits (Count)
system.cpu.dcache.demandMshrMisses::cpu.data        14236                       # number of demand (read+write) MSHR misses (Count)
system.cpu.dcache.demandMshrMisses::total        14236                       # number of demand (read+write) MSHR misses (Count)
system.cpu.dcache.overallMshrMisses::cpu.data        14236                       # number of overall MSHR misses (Count)
system.cpu.dcache.overallMshrMisses::total        14236                       # number of overall MSHR misses (Count)
system.cpu.dcache.demandMshrMissLatency::cpu.data    559244998                       # number of demand (read+write) MSHR miss ticks (Tick)
system.cpu.dcache.demandMshrMissLatency::total    559244998                       # number of demand (read+write) MSHR miss ticks (Tick)
system.cpu.dcache.overallMshrMissLatency::cpu.data    559244998                       # number of overall MSHR miss ticks (Tick)
system.cpu.dcache.overallMshrMissLatency::total    559244998                       # number of overall MSHR miss ticks (Tick)
system.cpu.dcache.demandMshrMissRate::cpu.data     0.001770                       # mshr miss ratio for demand accesses (Ratio)
system.cpu.dcache.demandMshrMissRate::total     0.001770                       # mshr miss ratio for demand accesses (Ratio)
system.cpu.dcache.overallMshrMissRate::cpu.data     0.001770                       # mshr miss ratio for overall accesses (Ratio)
system.cpu.dcache.overallMshrMissRate::total     0.001770                       # mshr miss ratio for overall accesses (Ratio)
system.cpu.dcache.demandAvgMshrMissLatency::cpu.data 39283.857685                       # average overall mshr miss latency ((Cycle/Count))
system.cpu.dcache.demandAvgMshrMissLatency::total 39283.857685                       # average overall mshr miss latency ((Cycle/Count))
system.cpu.dcache.overallAvgMshrMissLatency::cpu.data 39283.857685                       # average overall mshr miss latency ((Cycle/Count))
system.cpu.dcache.overallAvgMshrMissLatency::total 39283.857685                       # average overall mshr miss latency ((Cycle/Count))
system.cpu.dcache.replacements                  13724                       # number of replacements (Count)
system.cpu.dcache.ReadReq.hits::cpu.data      3920563                       # number of ReadReq hits (Count)
system.cpu.dcache.ReadReq.hits::total         3920563                       # number of ReadReq hits (Count)
system.cpu.dcache.ReadReq.misses::cpu.data        31166                       # number of ReadReq misses (Count)
system.cpu.dcache.ReadReq.misses::total         31166                       # number of ReadReq misses (Count)
system.cpu.dcache.ReadReq.missLatency::cpu.data   1146915500                       # number of ReadReq miss ticks (Tick)
system.cpu.dcache.ReadReq.missLatency::total   1146915500                       # number of ReadReq miss ticks (Tick)
system.cpu.dcache.ReadReq.accesses::cpu.data      3951729                       # number of ReadReq accesses(hits+misses) (Count)
system.cpu.dcache.ReadReq.accesses::total      3951729                       # number of ReadReq accesses(hits+misses) (Count)
system.cpu.dcache.ReadReq.missRate::cpu.data     0.007887                       # miss rate for ReadReq accesses (Ratio)
system.cpu.dcache.ReadReq.missRate::total     0.007887                       # miss rate for ReadReq accesses (Ratio)
system.cpu.dcache.ReadReq.avgMissLatency::cpu.data 36800.214978                       # average ReadReq miss latency ((Tick/Count))
system.cpu.dcache.ReadReq.avgMissLatency::total 36800.214978                       # average ReadReq miss latency ((Tick/Count))
system.cpu.dcache.ReadReq.mshrHits::cpu.data        19681                       # number of ReadReq MSHR hits (Count)
system.cpu.dcache.ReadReq.mshrHits::total        19681                       # number of ReadReq MSHR hits (Count)
system.cpu.dcache.ReadReq.mshrMisses::cpu.data        11485                       # number of ReadReq MSHR misses (Count)
system.cpu.dcache.ReadReq.mshrMisses::total        11485                       # number of ReadReq MSHR misses (Count)
system.cpu.dcache.ReadReq.mshrMissLatency::cpu.data    422195500                       # number of ReadReq MSHR miss ticks (Tick)
system.cpu.dcache.ReadReq.mshrMissLatency::total    422195500                       # number of ReadReq MSHR miss ticks (Tick)
system.cpu.dcache.ReadReq.mshrMissRate::cpu.data     0.002906                       # mshr miss rate for ReadReq accesses (Ratio)
system.cpu.dcache.ReadReq.mshrMissRate::total     0.002906                       # mshr miss rate for ReadReq accesses (Ratio)
system.cpu.dcache.ReadReq.avgMshrMissLatency::cpu.data 36760.600784                       # average ReadReq mshr miss latency ((Tick/Count))
system.cpu.dcache.ReadReq.avgMshrMissLatency::total 36760.600784                       # average ReadReq mshr miss latency ((Tick/Count))
system.cpu.dcache.WriteReq.hits::cpu.data      4087299                       # number of WriteReq hits (Count)
system.cpu.dcache.WriteReq.hits::total        4087299                       # number of WriteReq hits (Count)
system.cpu.dcache.WriteReq.misses::cpu.data         3730                       # number of WriteReq misses (Count)
system.cpu.dcache.WriteReq.misses::total         3730                       # number of WriteReq misses (Count)
system.cpu.dcache.WriteReq.missLatency::cpu.data    146435498                       # number of WriteReq miss ticks (Tick)
system.cpu.dcache.WriteReq.missLatency::total    146435498                       # number of WriteReq miss ticks (Tick)
system.cpu.dcache.WriteReq.accesses::cpu.data      4091029                       # number of WriteReq accesses(hits+misses) (Count)
system.cpu.dcache.WriteReq.accesses::total      4091029                       # number of WriteReq accesses(hits+misses) (Count)
system.cpu.dcache.WriteReq.missRate::cpu.data     0.000912                       # miss rate for WriteReq accesses (Ratio)
system.cpu.dcache.WriteReq.missRate::total     0.000912                       # miss rate for WriteReq accesses (Ratio)
system.cpu.dcache.WriteReq.avgMissLatency::cpu.data 39258.846649                       # average WriteReq miss latency ((Tick/Count))
system.cpu.dcache.WriteReq.avgMissLatency::total 39258.846649                       # average WriteReq miss latency ((Tick/Count))
system.cpu.dcache.WriteReq.mshrHits::cpu.data          979                       # number of WriteReq MSHR hits (Count)
system.cpu.dcache.WriteReq.mshrHits::total          979                       # number of WriteReq MSHR hits (Count)
system.cpu.dcache.WriteReq.mshrMisses::cpu.data         2751                       # number of WriteReq MSHR misses (Count)
system.cpu.dcache.WriteReq.mshrMisses::total         2751                       # number of WriteReq MSHR misses (Count)
system.cpu.dcache.WriteReq.mshrMissLatency::cpu.data    137049498                       # number of WriteReq MSHR miss ticks (Tick)
system.cpu.dcache.WriteReq.mshrMissLatency::total    137049498                       # number of WriteReq MSHR miss ticks (Tick)
system.cpu.dcache.WriteReq.mshrMissRate::cpu.data     0.000672                       # mshr miss rate for WriteReq accesses (Ratio)
system.cpu.dcache.WriteReq.mshrMissRate::total     0.000672                       # mshr miss rate for WriteReq accesses (Ratio)
system.cpu.dcache.WriteReq.avgMshrMissLatency::cpu.data 49818.065431                       # average WriteReq mshr miss latency ((Tick/Count))
system.cpu.dcache.WriteReq.avgMshrMissLatency::total 49818.065431                       # average WriteReq mshr miss latency ((Tick/Count))
system.cpu.dcache.power_state.pwrStateResidencyTicks::UNDEFINED   5561816500                       # Cumulative time (in ticks) in various power states (Tick)
system.cpu.dcache.tags.tagsInUse           509.299704                       # Average ticks per tags in use ((Tick/Count))
system.cpu.dcache.tags.totalRefs              8022098                       # Total number of references to valid blocks. (Count)
system.cpu.dcache.tags.sampledRefs              14236                       # Sample count of references to valid blocks. (Count)
system.cpu.dcache.tags.avgRefs             563.507867                       # Average number of references to valid blocks. ((Count/Count))
system.cpu.dcache.tags.warmupTick              168000                       # The tick when the warmup percentage was hit. (Tick)
system.cpu.dcache.tags.occupancies::cpu.data   509.299704                       # Average occupied blocks per tick, per requestor ((Count/Tick))
system.cpu.dcache.tags.avgOccs::cpu.data     0.994726                       # Average percentage of cache occupancy ((Ratio/Tick))
system.cpu.dcache.tags.avgOccs::total        0.994726                       # Average percentage of cache occupancy ((Ratio/Tick))
system.cpu.dcache.tags.occupanciesTaskId::1024          512                       # Occupied blocks per task id (Count)
system.cpu.dcache.tags.ageTaskId_1024::0           57                       # Occupied blocks per task id, per block age (Count)
system.cpu.dcache.tags.ageTaskId_1024::1           11                       # Occupied blocks per task id, per block age (Count)
system.cpu.dcache.tags.ageTaskId_1024::2          101                       # Occupied blocks per task id, per block age (Count)
system.cpu.dcache.tags.ageTaskId_1024::3          343                       # Occupied blocks per task id, per block age (Count)
system.cpu.dcache.tags.ratioOccsTaskId::1024            1                       # Ratio of occupied blocks and all blocks, per task id (Ratio)
system.cpu.dcache.tags.tagAccesses           16099752                       # Number of tag accesses (Count)
system.cpu.dcache.tags.dataAccesses          16099752                       # Number of data accesses (Count)
system.cpu.dcache.tags.power_state.pwrStateResidencyTicks::UNDEFINED   5561816500                       # Cumulative time (in ticks) in various power states (Tick)
system.cpu.decode.idleCycles                  3813741                       # Number of cycles decode is idle (Cycle)
system.cpu.decode.blockedCycles                646892                       # Number of cycles decode is blocked (Cycle)
system.cpu.decode.runCycles                   6428899                       # Number of cycles decode is running (Cycle)
system.cpu.decode.unblockCycles                 86784                       # Number of cycles decode is unblocking (Cycle)
system.cpu.decode.squashCycles                  49851                       # Number of cycles decode is squashing (Cycle)
system.cpu.decode.branchResolved              1439604                       # Number of times decode resolved a branch (Count)
system.cpu.decode.branchMispred                  2622                       # Number of times decode detected a branch misprediction (Count)
system.cpu.decode.decodedInsts               37462885                       # Number of instructions handled by decode (Count)
system.cpu.decode.squashedInsts                  3920                       # Number of squashed instructions handled by decode (Count)
system.cpu.fetch.icacheStallCycles            3902720                       # Number of cycles fetch is stalled on an Icache miss (Cycle)
system.cpu.fetch.insts                       21174344                       # Number of instructions fetch has processed (Count)
system.cpu.fetch.branches                     3568498                       # Number of branches that fetch encountered (Count)
system.cpu.fetch.predictedBranches            2578447                       # Number of branches that fetch has predicted taken (Count)
system.cpu.fetch.cycles                       7054703                       # Number of cycles fetch has run and was not squashing or blocked (Cycle)
system.cpu.fetch.squashCycles                  104918                       # Number of cycles fetch has spent squashing (Cycle)
system.cpu.fetch.miscStallCycles                 2255                       # Number of cycles fetch has spent waiting on interrupts, or bad addresses, or out of MSHRs (Cycle)
system.cpu.fetch.pendingTrapStallCycles         13883                       # Number of stall cycles due to pending traps (Cycle)
system.cpu.fetch.pendingQuiesceStallCycles          133                       # Number of stall cycles due to pending quiesce instructions (Cycle)
system.cpu.fetch.icacheWaitRetryStallCycles           14                       # Number of stall cycles due to full MSHR (Cycle)
system.cpu.fetch.cacheLines                   3830034                       # Number of cache lines fetched (Count)
system.cpu.fetch.icacheSquashes                 17223                       # Number of outstanding Icache misses that were squashed (Count)
system.cpu.fetch.nisnDist::samples           11026167                       # Number of instructions fetched each cycle (Total) (Count)
system.cpu.fetch.nisnDist::mean              3.422867                       # Number of instructions fetched each cycle (Total) (Count)
system.cpu.fetch.nisnDist::stdev             3.480461                       # Number of instructions fetched each cycle (Total) (Count)
system.cpu.fetch.nisnDist::underflows               0      0.00%      0.00% # Number of instructions fetched each cycle (Total) (Count)
system.cpu.fetch.nisnDist::0                  4391441     39.83%     39.83% # Number of instructions fetched each cycle (Total) (Count)
system.cpu.fetch.nisnDist::1                  1101974      9.99%     49.82% # Number of instructions fetched each cycle (Total) (Count)
system.cpu.fetch.nisnDist::2                   108520      0.98%     50.81% # Number of instructions fetched each cycle (Total) (Count)
system.cpu.fetch.nisnDist::3                   157417      1.43%     52.23% # Number of instructions fetched each cycle (Total) (Count)
system.cpu.fetch.nisnDist::4                  1131764     10.26%     62.50% # Number of instructions fetched each cycle (Total) (Count)
system.cpu.fetch.nisnDist::5                   119834      1.09%     63.58% # Number of instructions fetched each cycle (Total) (Count)
system.cpu.fetch.nisnDist::6                   595252      5.40%     68.98% # Number of instructions fetched each cycle (Total) (Count)
system.cpu.fetch.nisnDist::7                   107621      0.98%     69.96% # Number of instructions fetched each cycle (Total) (Count)
system.cpu.fetch.nisnDist::8                  3312344     30.04%    100.00% # Number of instructions fetched each cycle (Total) (Count)
system.cpu.fetch.nisnDist::overflows                0      0.00%    100.00% # Number of instructions fetched each cycle (Total) (Count)
system.cpu.fetch.nisnDist::min_value                0                       # Number of instructions fetched each cycle (Total) (Count)
system.cpu.fetch.nisnDist::max_value                8                       # Number of instructions fetched each cycle (Total) (Count)
system.cpu.fetch.nisnDist::total             11026167                       # Number of instructions fetched each cycle (Total) (Count)
system.cpu.fetch.branchRate                  0.320803                       # Number of branch fetches per cycle (Ratio)
system.cpu.fetch.rate                        1.903546                       # Number of inst fetches per cycle ((Count/Cycle))
system.cpu.icache.demandHits::cpu.inst        3828240                       # number of demand (read+write) hits (Count)
system.cpu.icache.demandHits::total           3828240                       # number of demand (read+write) hits (Count)
system.cpu.icache.overallHits::cpu.inst       3828240                       # number of overall hits (Count)
system.cpu.icache.overallHits::total          3828240                       # number of overall hits (Count)
system.cpu.icache.demandMisses::cpu.inst         1794                       # number of demand (read+write) misses (Count)
system.cpu.icache.demandMisses::total            1794                       # number of demand (read+write) misses (Count)
system.cpu.icache.overallMisses::cpu.inst         1794                       # number of overall misses (Count)
system.cpu.icache.overallMisses::total           1794                       # number of overall misses (Count)
system.cpu.icache.demandMissLatency::cpu.inst    125995500                       # number of demand (read+write) miss ticks (Tick)
system.cpu.icache.demandMissLatency::total    125995500                       # number of demand (read+write) miss ticks (Tick)
system.cpu.icache.overallMissLatency::cpu.inst    125995500                       # number of overall miss ticks (Tick)
system.cpu.icache.overallMissLatency::total    125995500                       # number of overall miss ticks (Tick)
system.cpu.icache.demandAccesses::cpu.inst      3830034                       # number of demand (read+write) accesses (Count)
system.cpu.icache.demandAccesses::total       3830034                       # number of demand (read+write) accesses (Count)
system.cpu.icache.overallAccesses::cpu.inst      3830034                       # number of overall (read+write) accesses (Count)
system.cpu.icache.overallAccesses::total      3830034                       # number of overall (read+write) accesses (Count)
system.cpu.icache.demandMissRate::cpu.inst     0.000468                       # miss rate for demand accesses (Ratio)
system.cpu.icache.demandMissRate::total      0.000468                       # miss rate for demand accesses (Ratio)
system.cpu.icache.overallMissRate::cpu.inst     0.000468                       # miss rate for overall accesses (Ratio)
system.cpu.icache.overallMissRate::total     0.000468                       # miss rate for overall accesses (Ratio)
system.cpu.icache.demandAvgMissLatency::cpu.inst 70231.605351                       # average overall miss latency ((Cycle/Count))
system.cpu.icache.demandAvgMissLatency::total 70231.605351                       # average overall miss latency ((Cycle/Count))
system.cpu.icache.overallAvgMissLatency::cpu.inst 70231.605351                       # average overall miss latency ((Cycle/Count))
system.cpu.icache.overallAvgMissLatency::total 70231.605351                       # average overall miss latency ((Cycle/Count))
system.cpu.icache.blockedCycles::no_mshrs          135                       # number of cycles access was blocked (Cycle)
system.cpu.icache.blockedCycles::no_targets            0                       # number of cycles access was blocked (Cycle)
system.cpu.icache.blockedCauses::no_mshrs            2                       # number of times access was blocked (Count)
system.cpu.icache.blockedCauses::no_targets            0                       # number of times access was blocked (Count)
system.cpu.icache.avgBlocked::no_mshrs      67.500000                       # average number of cycles each access was blocked ((Cycle/Count))
system.cpu.icache.avgBlocked::no_targets          nan                       # average number of cycles each access was blocked ((Cycle/Count))
system.cpu.icache.demandMshrHits::cpu.inst          424                       # number of demand (read+write) MSHR hits (Count)
system.cpu.icache.demandMshrHits::total           424                       # number of demand (read+write) MSHR hits (Count)
system.cpu.icache.overallMshrHits::cpu.inst          424                       # number of overall MSHR hits (Count)
system.cpu.icache.overallMshrHits::total          424                       # number of overall MSHR hits (Count)
system.cpu.icache.demandMshrMisses::cpu.inst         1370                       # number of demand (read+write) MSHR misses (Count)
system.cpu.icache.demandMshrMisses::total         1370                       # number of demand (read+write) MSHR misses (Count)
system.cpu.icache.overallMshrMisses::cpu.inst         1370                       # number of overall MSHR misses (Count)
system.cpu.icache.overallMshrMisses::total         1370                       # number of overall MSHR misses (Count)
system.cpu.icache.demandMshrMissLatency::cpu.inst    100376000                       # number of demand (read+write) MSHR miss ticks (Tick)
system.cpu.icache.demandMshrMissLatency::total    100376000                       # number of demand (read+write) MSHR miss ticks (Tick)
system.cpu.icache.overallMshrMissLatency::cpu.inst    100376000                       # number of overall MSHR miss ticks (Tick)
system.cpu.icache.overallMshrMissLatency::total    100376000                       # number of overall MSHR miss ticks (Tick)
system.cpu.icache.demandMshrMissRate::cpu.inst     0.000358                       # mshr miss ratio for demand accesses (Ratio)
system.cpu.icache.demandMshrMissRate::total     0.000358                       # mshr miss ratio for demand accesses (Ratio)
system.cpu.icache.overallMshrMissRate::cpu.inst     0.000358                       # mshr miss ratio for overall accesses (Ratio)
system.cpu.icache.overallMshrMissRate::total     0.000358                       # mshr miss ratio for overall accesses (Ratio)
system.cpu.icache.demandAvgMshrMissLatency::cpu.inst 73267.153285                       # average overall mshr miss latency ((Cycle/Count))
system.cpu.icache.demandAvgMshrMissLatency::total 73267.153285                       # average overall mshr miss latency ((Cycle/Count))
system.cpu.icache.overallAvgMshrMissLatency::cpu.inst 73267.153285                       # average overall mshr miss latency ((Cycle/Count))
system.cpu.icache.overallAvgMshrMissLatency::total 73267.153285                       # average overall mshr miss latency ((Cycle/Count))
system.cpu.icache.replacements                    475                       # number of replacements (Count)
system.cpu.icache.ReadReq.hits::cpu.inst      3828240                       # number of ReadReq hits (Count)
system.cpu.icache.ReadReq.hits::total         3828240                       # number of ReadReq hits (Count)
system.cpu.icache.ReadReq.misses::cpu.inst         1794                       # number of ReadReq misses (Count)
system.cpu.icache.ReadReq.misses::total          1794                       # number of ReadReq misses (Count)
system.cpu.icache.ReadReq.missLatency::cpu.inst    125995500                       # number of ReadReq miss ticks (Tick)
system.cpu.icache.ReadReq.missLatency::total    125995500                       # number of ReadReq miss ticks (Tick)
system.cpu.icache.ReadReq.accesses::cpu.inst      3830034                       # number of ReadReq accesses(hits+misses) (Count)
system.cpu.icache.ReadReq.accesses::total      3830034                       # number of ReadReq accesses(hits+misses) (Count)
system.cpu.icache.ReadReq.missRate::cpu.inst     0.000468                       # miss rate for ReadReq accesses (Ratio)
system.cpu.icache.ReadReq.missRate::total     0.000468                       # miss rate for ReadReq accesses (Ratio)
system.cpu.icache.ReadReq.avgMissLatency::cpu.inst 70231.605351                       # average ReadReq miss latency ((Tick/Count))
system.cpu.icache.ReadReq.avgMissLatency::total 70231.605351                       # average ReadReq miss latency ((Tick/Count))
system.cpu.icache.ReadReq.mshrHits::cpu.inst          424                       # number of ReadReq MSHR hits (Count)
system.cpu.icache.ReadReq.mshrHits::total          424                       # number of ReadReq MSHR hits (Count)
system.cpu.icache.ReadReq.mshrMisses::cpu.inst         1370                       # number of ReadReq MSHR misses (Count)
system.cpu.icache.ReadReq.mshrMisses::total         1370                       # number of ReadReq MSHR misses (Count)
system.cpu.icache.ReadReq.mshrMissLatency::cpu.inst    100376000                       # number of ReadReq MSHR miss ticks (Tick)
system.cpu.icache.ReadReq.mshrMissLatency::total    100376000                       # number of ReadReq MSHR miss ticks (Tick)
system.cpu.icache.ReadReq.mshrMissRate::cpu.inst     0.000358                       # mshr miss rate for ReadReq accesses (Ratio)
system.cpu.icache.ReadReq.mshrMissRate::total     0.000358                       # mshr miss rate for ReadReq accesses (Ratio)
system.cpu.icache.ReadReq.avgMshrMissLatency::cpu.inst 73267.153285                       # average ReadReq mshr miss latency ((Tick/Count))
system.cpu.icache.ReadReq.avgMshrMissLatency::total 73267.153285                       # average ReadReq mshr miss latency ((Tick/Count))
system.cpu.icache.power_state.pwrStateResidencyTicks::UNDEFINED   5561816500                       # Cumulative time (in ticks) in various power states (Tick)
system.cpu.icache.tags.tagsInUse           754.370142                       # Average ticks per tags in use ((Tick/Count))
system.cpu.icache.tags.totalRefs              3829609                       # Total number of references to valid blocks. (Count)
system.cpu.icache.tags.sampledRefs               1369                       # Sample count of references to valid blocks. (Count)
system.cpu.icache.tags.avgRefs            2797.376917                       # Average number of references to valid blocks. ((Count/Count))
system.cpu.icache.tags.warmupTick               82000                       # The tick when the warmup percentage was hit. (Tick)
system.cpu.icache.tags.occupancies::cpu.inst   754.370142                       # Average occupied blocks per tick, per requestor ((Count/Tick))
system.cpu.icache.tags.avgOccs::cpu.inst     0.736690                       # Average percentage of cache occupancy ((Ratio/Tick))
system.cpu.icache.tags.avgOccs::total        0.736690                       # Average percentage of cache occupancy ((Ratio/Tick))
system.cpu.icache.tags.occupanciesTaskId::1024          894                       # Occupied blocks per task id (Count)
system.cpu.icache.tags.ageTaskId_1024::0           88                       # Occupied blocks per task id, per block age (Count)
system.cpu.icache.tags.ageTaskId_1024::2            8                       # Occupied blocks per task id, per block age (Count)
system.cpu.icache.tags.ageTaskId_1024::3          798                       # Occupied blocks per task id, per block age (Count)
system.cpu.icache.tags.ratioOccsTaskId::1024     0.873047                       # Ratio of occupied blocks and all blocks, per task id (Ratio)
system.cpu.icache.tags.tagAccesses            7661437                       # Number of tag accesses (Count)
system.cpu.icache.tags.dataAccesses           7661437                       # Number of data accesses (Count)
system.cpu.icache.tags.power_state.pwrStateResidencyTicks::UNDEFINED   5561816500                       # Cumulative time (in ticks) in various power states (Tick)
system.cpu.iew.idleCycles                           0                       # Number of cycles IEW is idle (Cycle)
system.cpu.iew.squashCycles                     49851                       # Number of cycles IEW is squashing (Cycle)
system.cpu.iew.blockCycles                     269767                       # Number of cycles IEW is blocking (Cycle)
system.cpu.iew.unblockCycles                    26889                       # Number of cycles IEW is unblocking (Cycle)
system.cpu.iew.dispatchedInsts               36912500                       # Number of instructions dispatched to IQ (Count)
system.cpu.iew.dispSquashedInsts                23573                       # Number of squashed instructions skipped by dispatch (Count)
system.cpu.iew.dispLoadInsts                  8222471                       # Number of dispatched load instructions (Count)
system.cpu.iew.dispStoreInsts                 4191281                       # Number of dispatched store instructions (Count)
system.cpu.iew.dispNonSpecInsts                    34                       # Number of dispatched non-speculative instructions (Count)
system.cpu.iew.iqFullEvents                      2611                       # Number of times the IQ has become full, causing a stall (Count)
system.cpu.iew.lsqFullEvents                    23813                       # Number of times the LSQ has become full, causing a stall (Count)
system.cpu.iew.memOrderViolationEvents            523                       # Number of memory order violations (Count)
system.cpu.iew.predictedTakenIncorrect          20356                       # Number of branches that were predicted taken incorrectly (Count)
system.cpu.iew.predictedNotTakenIncorrect        34344                       # Number of branches that were predicted not taken incorrectly (Count)
system.cpu.iew.branchMispredicts                54700                       # Number of branch mispredicts detected at execute (Count)
system.cpu.iew.instsToCommit                 36349044                       # Cumulative count of insts sent to commit (Count)
system.cpu.iew.writebackCount                36326355                       # Cumulative count of insts written-back (Count)
system.cpu.iew.producerInst                  23286533                       # Number of instructions producing a value (Count)
system.cpu.iew.consumerInst                  31021780                       # Number of instructions consuming a value (Count)
system.cpu.iew.wbRate                        3.265691                       # Insts written-back per cycle ((Count/Cycle))
system.cpu.iew.wbFanout                      0.750651                       # Average fanout of values written-back ((Count/Count))
system.cpu.interrupts.clk_domain.clock           8000                       # Clock period in ticks (Tick)
system.cpu.l2cache.demandHits::cpu.inst            55                       # number of demand (read+write) hits (Count)
system.cpu.l2cache.demandHits::cpu.data          8209                       # number of demand (read+write) hits (Count)
system.cpu.l2cache.demandHits::total             8264                       # number of demand (read+write) hits (Count)
system.cpu.l2cache.overallHits::cpu.inst           55                       # number of overall hits (Count)
system.cpu.l2cache.overallHits::cpu.data         8209                       # number of overall hits (Count)
system.cpu.l2cache.overallHits::total            8264                       # number of overall hits (Count)
system.cpu.l2cache.demandMisses::cpu.inst         1315                       # number of demand (read+write) misses (Count)
system.cpu.l2cache.demandMisses::cpu.data         6027                       # number of demand (read+write) misses (Count)
system.cpu.l2cache.demandMisses::total           7342                       # number of demand (read+write) misses (Count)
system.cpu.l2cache.overallMisses::cpu.inst         1315                       # number of overall misses (Count)
system.cpu.l2cache.overallMisses::cpu.data         6027                       # number of overall misses (Count)
system.cpu.l2cache.overallMisses::total          7342                       # number of overall misses (Count)
system.cpu.l2cache.demandMissLatency::cpu.inst     97736000                       # number of demand (read+write) miss ticks (Tick)
system.cpu.l2cache.demandMissLatency::cpu.data    451557500                       # number of demand (read+write) miss ticks (Tick)
system.cpu.l2cache.demandMissLatency::total    549293500                       # number of demand (read+write) miss ticks (Tick)
system.cpu.l2cache.overallMissLatency::cpu.inst     97736000                       # number of overall miss ticks (Tick)
system.cpu.l2cache.overallMissLatency::cpu.data    451557500                       # number of overall miss ticks (Tick)
system.cpu.l2cache.overallMissLatency::total    549293500                       # number of overall miss ticks (Tick)
system.cpu.l2cache.demandAccesses::cpu.inst         1370                       # number of demand (read+write) accesses (Count)
system.cpu.l2cache.demandAccesses::cpu.data        14236                       # number of demand (read+write) accesses (Count)
system.cpu.l2cache.demandAccesses::total        15606                       # number of demand (read+write) accesses (Count)
system.cpu.l2cache.overallAccesses::cpu.inst         1370                       # number of overall (read+write) accesses (Count)
system.cpu.l2cache.overallAccesses::cpu.data        14236                       # number of overall (read+write) accesses (Count)
system.cpu.l2cache.overallAccesses::total        15606                       # number of overall (read+write) accesses (Count)
system.cpu.l2cache.demandMissRate::cpu.inst     0.959854                       # miss rate for demand accesses (Ratio)
system.cpu.l2cache.demandMissRate::cpu.data     0.423363                       # miss rate for demand accesses (Ratio)
system.cpu.l2cache.demandMissRate::total     0.470460                       # miss rate for demand accesses (Ratio)
system.cpu.l2cache.overallMissRate::cpu.inst     0.959854                       # miss rate for overall accesses (Ratio)
system.cpu.l2cache.overallMissRate::cpu.data     0.423363                       # miss rate for overall accesses (Ratio)
system.cpu.l2cache.overallMissRate::total     0.470460                       # miss rate for overall accesses (Ratio)
system.cpu.l2cache.demandAvgMissLatency::cpu.inst 74323.954373                       # average overall miss latency ((Cycle/Count))
system.cpu.l2cache.demandAvgMissLatency::cpu.data 74922.432388                       # average overall miss latency ((Cycle/Count))
system.cpu.l2cache.demandAvgMissLatency::total 74815.241079                       # average overall miss latency ((Cycle/Count))
system.cpu.l2cache.overallAvgMissLatency::cpu.inst 74323.954373                       # average overall miss latency ((Cycle/Count))
system.cpu.l2cache.overallAvgMissLatency::cpu.data 74922.432388                       # average overall miss latency ((Cycle/Count))
system.cpu.l2cache.overallAvgMissLatency::total 74815.241079                       # average overall miss latency ((Cycle/Count))
system.cpu.l2cache.blockedCycles::no_mshrs            0                       # number of cycles access was blocked (Cycle)
system.cpu.l2cache.blockedCycles::no_targets            0                       # number of cycles access was blocked (Cycle)
system.cpu.l2cache.blockedCauses::no_mshrs            0                       # number of times access was blocked (Count)
system.cpu.l2cache.blockedCauses::no_targets            0                       # number of times access was blocked (Count)
system.cpu.l2cache.avgBlocked::no_mshrs           nan                       # average number of cycles each access was blocked ((Cycle/Count))
system.cpu.l2cache.avgBlocked::no_targets          nan                       # average number of cycles each access was blocked ((Cycle/Count))
system.cpu.l2cache.writebacks::writebacks         1498                       # number of writebacks (Count)
system.cpu.l2cache.writebacks::total             1498                       # number of writebacks (Count)
system.cpu.l2cache.demandMshrMisses::cpu.inst         1315                       # number of demand (read+write) MSHR misses (Count)
system.cpu.l2cache.demandMshrMisses::cpu.data         6027                       # number of demand (read+write) MSHR misses (Count)
system.cpu.l2cache.demandMshrMisses::total         7342                       # number of demand (read+write) MSHR misses (Count)
system.cpu.l2cache.overallMshrMisses::cpu.inst         1315                       # number of overall MSHR misses (Count)
system.cpu.l2cache.overallMshrMisses::cpu.data         6027                       # number of overall MSHR misses (Count)
system.cpu.l2cache.overallMshrMisses::total         7342                       # number of overall MSHR misses (Count)
system.cpu.l2cache.demandMshrMissLatency::cpu.inst     84596000                       # number of demand (read+write) MSHR miss ticks (Tick)
system.cpu.l2cache.demandMshrMissLatency::cpu.data    391287500                       # number of demand (read+write) MSHR miss ticks (Tick)
system.cpu.l2cache.demandMshrMissLatency::total    475883500                       # number of demand (read+write) MSHR miss ticks (Tick)
system.cpu.l2cache.overallMshrMissLatency::cpu.inst     84596000                       # number of overall MSHR miss ticks (Tick)
system.cpu.l2cache.overallMshrMissLatency::cpu.data    391287500                       # number of overall MSHR miss ticks (Tick)
system.cpu.l2cache.overallMshrMissLatency::total    475883500                       # number of overall MSHR miss ticks (Tick)
system.cpu.l2cache.demandMshrMissRate::cpu.inst     0.959854                       # mshr miss ratio for demand accesses (Ratio)
[...]
system.mem_ctrl.dram.bytesWritten::total        95872                       # Number of bytes written to this memory (Byte)
system.mem_ctrl.dram.numReads::cpu.inst          1314                       # Number of read requests responded to by this memory (Count)
system.mem_ctrl.dram.numReads::cpu.data          6027                       # Number of read requests responded to by this memory (Count)
system.mem_ctrl.dram.numReads::total             7341                       # Number of read requests responded to by this memory (Count)
system.mem_ctrl.dram.numWrites::writebacks         1498                       # Number of write requests responded to by this memory (Count)
system.mem_ctrl.dram.numWrites::total            1498                       # Number of write requests responded to by this memory (Count)
system.mem_ctrl.dram.bwRead::cpu.inst        15120240                       # Total read bandwidth from this memory ((Byte/Second))
system.mem_ctrl.dram.bwRead::cpu.data        69352881                       # Total read bandwidth from this memory ((Byte/Second))
system.mem_ctrl.dram.bwRead::total           84473121                       # Total read bandwidth from this memory ((Byte/Second))
system.mem_ctrl.dram.bwInstRead::cpu.inst     15120240                       # Instruction read bandwidth from this memory ((Byte/Second))
system.mem_ctrl.dram.bwInstRead::total       15120240                       # Instruction read bandwidth from this memory ((Byte/Second))
system.mem_ctrl.dram.bwWrite::writebacks     17237534                       # Write bandwidth from this memory ((Byte/Second))
system.mem_ctrl.dram.bwWrite::total          17237534                       # Write bandwidth from this memory ((Byte/Second))
system.mem_ctrl.dram.bwTotal::writebacks     17237534                       # Total bandwidth to/from this memory ((Byte/Second))
system.mem_ctrl.dram.bwTotal::cpu.inst       15120240                       # Total bandwidth to/from this memory ((Byte/Second))
system.mem_ctrl.dram.bwTotal::cpu.data       69352881                       # Total bandwidth to/from this memory ((Byte/Second))
system.mem_ctrl.dram.bwTotal::total         101710655                       # Total bandwidth to/from this memory ((Byte/Second))
system.mem_ctrl.dram.readBursts                  7337                       # Number of DRAM read bursts (Count)
system.mem_ctrl.dram.writeBursts                 1466                       # Number of DRAM write bursts (Count)
system.mem_ctrl.dram.perBankRdBursts::0           554                       # Per bank write bursts (Count)
system.mem_ctrl.dram.perBankRdBursts::1           551                       # Per bank write bursts (Count)
system.mem_ctrl.dram.perBankRdBursts::2           810                       # Per bank write bursts (Count)
system.mem_ctrl.dram.perBankRdBursts::3           483                       # Per bank write bursts (Count)
system.mem_ctrl.dram.perBankRdBursts::4           459                       # Per bank write bursts (Count)
system.mem_ctrl.dram.perBankRdBursts::5           378                       # Per bank write bursts (Count)
system.mem_ctrl.dram.perBankRdBursts::6           346                       # Per bank write bursts (Count)
system.mem_ctrl.dram.perBankRdBursts::7           317                       # Per bank write bursts (Count)
system.mem_ctrl.dram.perBankRdBursts::8           344                       # Per bank write bursts (Count)
system.mem_ctrl.dram.perBankRdBursts::9           444                       # Per bank write bursts (Count)
system.mem_ctrl.dram.perBankRdBursts::10          582                       # Per bank write bursts (Count)
system.mem_ctrl.dram.perBankRdBursts::11          429                       # Per bank write bursts (Count)
system.mem_ctrl.dram.perBankRdBursts::12          340                       # Per bank write bursts (Count)
system.mem_ctrl.dram.perBankRdBursts::13          388                       # Per bank write bursts (Count)
system.mem_ctrl.dram.perBankRdBursts::14          395                       # Per bank write bursts (Count)
system.mem_ctrl.dram.perBankRdBursts::15          517                       # Per bank write bursts (Count)
system.mem_ctrl.dram.perBankWrBursts::0           134                       # Per bank write bursts (Count)
system.mem_ctrl.dram.perBankWrBursts::1           142                       # Per bank write bursts (Count)
system.mem_ctrl.dram.perBankWrBursts::2           383                       # Per bank write bursts (Count)
system.mem_ctrl.dram.perBankWrBursts::3           130                       # Per bank write bursts (Count)
system.mem_ctrl.dram.perBankWrBursts::4            54                       # Per bank write bursts (Count)
system.mem_ctrl.dram.perBankWrBursts::5             0                       # Per bank write bursts (Count)
system.mem_ctrl.dram.perBankWrBursts::6            54                       # Per bank write bursts (Count)
system.mem_ctrl.dram.perBankWrBursts::7             9                       # Per bank write bursts (Count)
system.mem_ctrl.dram.perBankWrBursts::8            14                       # Per bank write bursts (Count)
system.mem_ctrl.dram.perBankWrBursts::9           106                       # Per bank write bursts (Count)
system.mem_ctrl.dram.perBankWrBursts::10          230                       # Per bank write bursts (Count)
system.mem_ctrl.dram.perBankWrBursts::11           73                       # Per bank write bursts (Count)
system.mem_ctrl.dram.perBankWrBursts::12            9                       # Per bank write bursts (Count)
system.mem_ctrl.dram.perBankWrBursts::13           23                       # Per bank write bursts (Count)
system.mem_ctrl.dram.perBankWrBursts::14           19                       # Per bank write bursts (Count)
system.mem_ctrl.dram.perBankWrBursts::15           86                       # Per bank write bursts (Count)
system.mem_ctrl.dram.totQLat                 76438000                       # Total ticks spent queuing (Tick)
system.mem_ctrl.dram.totBusLat               36685000                       # Total ticks spent in databus transfers (Tick)
system.mem_ctrl.dram.totMemAccLat           214006750                       # Total ticks spent from burst creation until serviced by the DRAM (Tick)
system.mem_ctrl.dram.avgQLat                 10418.15                       # Average queueing delay per DRAM burst ((Tick/Count))
system.mem_ctrl.dram.avgBusLat                5000.00                       # Average bus latency per DRAM burst ((Tick/Count))
system.mem_ctrl.dram.avgMemAccLat            29168.15                       # Average memory access latency per DRAM burst ((Tick/Count))
system.mem_ctrl.dram.readRowHits                 5987                       # Number of row buffer hits during reads (Count)
system.mem_ctrl.dram.writeRowHits                1228                       # Number of row buffer hits during writes (Count)
system.mem_ctrl.dram.readRowHitRate             81.60                       # Row buffer hit rate for reads (Ratio)
system.mem_ctrl.dram.writeRowHitRate            83.77                       # Row buffer hit rate for writes (Ratio)
system.mem_ctrl.dram.bytesPerActivate::samples         1579                       # Bytes accessed per row activation (Byte)
system.mem_ctrl.dram.bytesPerActivate::mean   355.992400                       # Bytes accessed per row activation (Byte)
system.mem_ctrl.dram.bytesPerActivate::gmean   236.134703                       # Bytes accessed per row activation (Byte)
system.mem_ctrl.dram.bytesPerActivate::stdev   315.237999                       # Bytes accessed per row activation (Byte)
system.mem_ctrl.dram.bytesPerActivate::0-127          360     22.80%     22.80% # Bytes accessed per row activation (Byte)
system.mem_ctrl.dram.bytesPerActivate::128-255          478     30.27%     53.07% # Bytes accessed per row activation (Byte)
system.mem_ctrl.dram.bytesPerActivate::256-383          121      7.66%     60.73% # Bytes accessed per row activation (Byte)
system.mem_ctrl.dram.bytesPerActivate::384-511          217     13.74%     74.48% # Bytes accessed per row activation (Byte)
system.mem_ctrl.dram.bytesPerActivate::512-639           91      5.76%     80.24% # Bytes accessed per row activation (Byte)
system.mem_ctrl.dram.bytesPerActivate::640-767           44      2.79%     83.03% # Bytes accessed per row activation (Byte)
system.mem_ctrl.dram.bytesPerActivate::768-895           58      3.67%     86.70% # Bytes accessed per row activation (Byte)
system.mem_ctrl.dram.bytesPerActivate::896-1023           41      2.60%     89.30% # Bytes accessed per row activation (Byte)
system.mem_ctrl.dram.bytesPerActivate::1024-1151          169     10.70%    100.00% # Bytes accessed per row activation (Byte)
system.mem_ctrl.dram.bytesPerActivate::total         1579                       # Bytes accessed per row activation (Byte)
system.mem_ctrl.dram.bytesRead                 469568                       # Total bytes read (Byte)
system.mem_ctrl.dram.bytesWritten               93824                       # Total bytes written (Byte)
system.mem_ctrl.dram.avgRdBW                84.427093                       # Average DRAM read bandwidth in MiBytes/s ((Byte/Second))
system.mem_ctrl.dram.avgWrBW                16.869309                       # Average DRAM write bandwidth in MiBytes/s ((Byte/Second))
system.mem_ctrl.dram.peakBW                  12800.00                       # Theoretical peak bandwidth in MiByte/s ((Byte/Second))
system.mem_ctrl.dram.busUtil                     0.79                       # Data bus utilization in percentage (Ratio)
system.mem_ctrl.dram.busUtilRead                 0.66                       # Data bus utilization in percentage for reads (Ratio)
system.mem_ctrl.dram.busUtilWrite                0.13                       # Data bus utilization in percentage for writes (Ratio)
system.mem_ctrl.dram.pageHitRate                81.96                       # Row buffer hit rate, read and write combined (Ratio)
system.mem_ctrl.dram.power_state.pwrStateResidencyTicks::UNDEFINED   5561816500                       # Cumulative time (in ticks) in various power states (Tick)
system.mem_ctrl.dram.rank0.actEnergy          6297480                       # Energy for activate commands per rank (pJ) (Joule)
system.mem_ctrl.dram.rank0.preEnergy          3328215                       # Energy for precharge commands per rank (pJ) (Joule)
system.mem_ctrl.dram.rank0.readEnergy        27831720                       # Energy for read commands per rank (pJ) (Joule)
system.mem_ctrl.dram.rank0.writeEnergy        4729320                       # Energy for write commands per rank (pJ) (Joule)
system.mem_ctrl.dram.rank0.refreshEnergy 438852960.000000                       # Energy for refresh commands per rank (pJ) (Joule)
system.mem_ctrl.dram.rank0.actBackEnergy   1038107940                       # Energy for active background per rank (pJ) (Joule)
system.mem_ctrl.dram.rank0.preBackEnergy   1261541760                       # Energy for precharge background per rank (pJ) (Joule)
system.mem_ctrl.dram.rank0.actPowerDownEnergy            0                       # Energy for active power-down per rank (pJ) (Joule)
system.mem_ctrl.dram.rank0.prePowerDownEnergy            0                       # Energy for precharge power-down per rank (pJ) (Joule)
system.mem_ctrl.dram.rank0.selfRefreshEnergy            0                       # Energy for self refresh per rank (pJ) (Joule)
system.mem_ctrl.dram.rank0.totalEnergy     2780689395                       # Total energy per rank (pJ) (Joule)
system.mem_ctrl.dram.rank0.averagePower    499.960650                       # Core power per rank (mW) (Watt)
system.mem_ctrl.dram.rank0.totalIdleTime            0                       # Total Idle time Per DRAM Rank (Tick)
system.mem_ctrl.dram.rank0.pwrStateTime::IDLE   3268978750                       # Time in different power states (Tick)
system.mem_ctrl.dram.rank0.pwrStateTime::REF    185640000                       # Time in different power states (Tick)
system.mem_ctrl.dram.rank0.pwrStateTime::SREF            0                       # Time in different power states (Tick)
system.mem_ctrl.dram.rank0.pwrStateTime::PRE_PDN            0                       # Time in different power states (Tick)
system.mem_ctrl.dram.rank0.pwrStateTime::ACT   2107197750                       # Time in different power states (Tick)
system.mem_ctrl.dram.rank0.pwrStateTime::ACT_PDN            0                       # Time in different power states (Tick)
system.mem_ctrl.dram.rank1.actEnergy          5040840                       # Energy for activate commands per rank (pJ) (Joule)
system.mem_ctrl.dram.rank1.preEnergy          2664090                       # Energy for precharge commands per rank (pJ) (Joule)
system.mem_ctrl.dram.rank1.readEnergy        24554460                       # Energy for read commands per rank (pJ) (Joule)
system.mem_ctrl.dram.rank1.writeEnergy        2923200                       # Energy for write commands per rank (pJ) (Joule)
system.mem_ctrl.dram.rank1.refreshEnergy 438852960.000000                       # Energy for refresh commands per rank (pJ) (Joule)
system.mem_ctrl.dram.rank1.actBackEnergy    783740310                       # Energy for active background per rank (pJ) (Joule)
system.mem_ctrl.dram.rank1.preBackEnergy   1475746080                       # Energy for precharge background per rank (pJ) (Joule)
system.mem_ctrl.dram.rank1.actPowerDownEnergy            0                       # Energy for active power-down per rank (pJ) (Joule)
system.mem_ctrl.dram.rank1.prePowerDownEnergy            0                       # Energy for precharge power-down per rank (pJ) (Joule)
system.mem_ctrl.dram.rank1.selfRefreshEnergy            0                       # Energy for self refresh per rank (pJ) (Joule)
system.mem_ctrl.dram.rank1.totalEnergy     2733521940                       # Total energy per rank (pJ) (Joule)
system.mem_ctrl.dram.rank1.averagePower    491.480066                       # Core power per rank (mW) (Watt)
system.mem_ctrl.dram.rank1.totalIdleTime            0                       # Total Idle time Per DRAM Rank (Tick)
system.mem_ctrl.dram.rank1.pwrStateTime::IDLE   3828798000                       # Time in different power states (Tick)
system.mem_ctrl.dram.rank1.pwrStateTime::REF    185640000                       # Time in different power states (Tick)
system.mem_ctrl.dram.rank1.pwrStateTime::SREF            0                       # Time in different power states (Tick)
system.mem_ctrl.dram.rank1.pwrStateTime::PRE_PDN            0                       # Time in different power states (Tick)
system.mem_ctrl.dram.rank1.pwrStateTime::ACT   1547378500                       # Time in different power states (Tick)
system.mem_ctrl.dram.rank1.pwrStateTime::ACT_PDN            0                       # Time in different power states (Tick)
system.mem_ctrl.power_state.pwrStateResidencyTicks::UNDEFINED   5561816500                       # Cumulative time (in ticks) in various power states (Tick)
system.membus.transDist::ReadResp                5683                       # Transaction distribution (Count)
system.membus.transDist::WritebackDirty          1498                       # Transaction distribution (Count)
system.membus.transDist::CleanEvict              1270                       # Transaction distribution (Count)
system.membus.transDist::ReadExReq               1658                       # Transaction distribution (Count)
system.membus.transDist::ReadExResp              1658                       # Transaction distribution (Count)
system.membus.transDist::ReadSharedReq           5683                       # Transaction distribution (Count)
system.membus.pktCount_system.cpu.l2cache.mem_side_port::system.mem_ctrl.port        17450                       # Packet count per connected requestor and responder (Count)
system.membus.pktCount_system.cpu.l2cache.mem_side_port::total        17450                       # Packet count per connected requestor and responder (Count)
system.membus.pktCount::total                   17450                       # Packet count per connected requestor and responder (Count)
system.membus.pktSize_system.cpu.l2cache.mem_side_port::system.mem_ctrl.port       565696                       # Cumulative packet size per connected requestor and responder (Byte)
system.membus.pktSize_system.cpu.l2cache.mem_side_port::total       565696                       # Cumulative packet size per connected requestor and responder (Byte)
system.membus.pktSize::total                   565696                       # Cumulative packet size per connected requestor and responder (Byte)
system.membus.snoops                                0                       # Total snoops (Count)
system.membus.snoopTraffic                          0                       # Total snoop traffic (Byte)
system.membus.snoopFanout::samples               7341                       # Request fanout histogram (Count)
system.membus.snoopFanout::mean                     0                       # Request fanout histogram (Count)
system.membus.snoopFanout::stdev                    0                       # Request fanout histogram (Count)
system.membus.snoopFanout::underflows               0      0.00%      0.00% # Request fanout histogram (Count)
system.membus.snoopFanout::0                     7341    100.00%    100.00% # Request fanout histogram (Count)
system.membus.snoopFanout::1                        0      0.00%    100.00% # Request fanout histogram (Count)
system.membus.snoopFanout::overflows                0      0.00%    100.00% # Request fanout histogram (Count)
system.membus.snoopFanout::min_value                0                       # Request fanout histogram (Count)
system.membus.snoopFanout::max_value                0                       # Request fanout histogram (Count)
system.membus.snoopFanout::total                 7341                       # Request fanout histogram (Count)
system.membus.power_state.pwrStateResidencyTicks::UNDEFINED   5561816500                       # Cumulative time (in ticks) in various power states (Tick)
system.membus.reqLayer2.occupancy             8050500                       # Layer occupancy (ticks) (Tick)
system.membus.reqLayer2.utilization               0.0                       # Layer utilization (Ratio)
system.membus.respLayer0.occupancy           19648250                       # Layer occupancy (ticks) (Tick)
system.membus.respLayer0.utilization              0.0                       # Layer utilization (Ratio)
system.membus.snoop_filter.totRequests          10109                       # Total number of requests made to the snoop filter. (Count)
system.membus.snoop_filter.hitSingleRequests         2768                       # Number of requests hitting in the snoop filter with a single holder of the requested data. (Count)
system.membus.snoop_filter.hitMultiRequests            0                       # Number of requests hitting in the snoop filter with multiple (>1) holders of the requested data. (Count)
system.membus.snoop_filter.totSnoops                0                       # Total number of snoops made to the snoop filter. (Count)
system.membus.snoop_filter.hitSingleSnoops            0                       # Number of snoops hitting in the snoop filter with a single holder of the requested data. (Count)
system.membus.snoop_filter.hitMultiSnoops            0                       # Number of snoops hitting in the snoop filter with multiple (>1) holders of the requested data. (Count)
system.workload.inst.arm                            0                       # number of arm instructions executed (Count)
system.workload.inst.quiesce                        0                       # number of quiesce instructions executed (Count)

---------- End Simulation Statistics   ----------
